# generated using pymatgen
data_Cu4NiC53
_symmetry_space_group_name_H-M   'P 1'
_cell_length_a   9.05808000
_cell_length_b   9.05808000
_cell_length_c   16.07193300
_cell_angle_alpha   90.00000000
_cell_angle_beta   90.00000000
_cell_angle_gamma   90.00000000
_symmetry_Int_Tables_number   1
_chemical_formula_structural   Cu4NiC53
_chemical_formula_sum   'Cu8 Ni2 C106'
_cell_volume   1318.68302987
_cell_formula_units_Z   2
loop_
 _symmetry_equiv_pos_site_id
 _symmetry_equiv_pos_as_xyz
  1  'x, y, z'
loop_
 _atom_site_type_symbol
 _atom_site_label
 _atom_site_symmetry_multiplicity
 _atom_site_fract_x
 _atom_site_fract_y
 _atom_site_fract_z
 _atom_site_occupancy
  Ni  Ni0  1  0.50000000  0.50000000  0.00000000  1
  Ni  Ni1  1  0.00000000  0.00000000  0.50000000  1
  Cu  Cu2  1  0.74504200  0.61055600  0.50000000  1
  Cu  Cu3  1  0.25495800  0.38944400  0.50000000  1
  Cu  Cu4  1  0.75495800  0.11055600  0.00000000  1
  Cu  Cu5  1  0.24504200  0.88944400  0.00000000  1
  Cu  Cu6  1  0.61055600  0.25495800  0.50000000  1
  Cu  Cu7  1  0.38944400  0.74504200  0.50000000  1
  Cu  Cu8  1  0.11055600  0.24504200  0.00000000  1
  Cu  Cu9  1  0.88944400  0.75495800  0.00000000  1
  C  C10  1  0.58544200  0.72615700  0.30941400  1
  C  C11  1  0.41455800  0.27384300  0.30941400  1
  C  C12  1  0.91455800  0.22615700  0.80941400  1
  C  C13  1  0.08544200  0.77384300  0.80941400  1
  C  C14  1  0.72615700  0.41455800  0.30941400  1
  C  C15  1  0.27384300  0.58544200  0.30941400  1
  C  C16  1  0.22615700  0.08544200  0.80941400  1
  C  C17  1  0.77384300  0.91455800  0.80941400  1
  C  C18  1  0.41455800  0.27384300  0.69058600  1
  C  C19  1  0.58544200  0.72615700  0.69058600  1
  C  C20  1  0.08544200  0.77384300  0.19058600  1
  C  C21  1  0.91455800  0.22615700  0.19058600  1
  C  C22  1  0.27384300  0.58544200  0.69058600  1
  C  C23  1  0.72615700  0.41455800  0.69058600  1
  C  C24  1  0.77384300  0.91455800  0.19058600  1
  C  C25  1  0.22615700  0.08544200  0.19058600  1
  C  C26  1  0.65959400  0.94785500  0.40897700  1
  C  C27  1  0.34040600  0.05214500  0.40897700  1
  C  C28  1  0.84040600  0.44785500  0.90897700  1
  C  C29  1  0.15959400  0.55214500  0.90897700  1
  C  C30  1  0.94785500  0.34040600  0.40897700  1
  C  C31  1  0.05214500  0.65959400  0.40897700  1
  C  C32  1  0.44785500  0.15959400  0.90897700  1
  C  C33  1  0.55214500  0.84040600  0.90897700  1
  C  C34  1  0.34040600  0.05214500  0.59102300  1
  C  C35  1  0.65959400  0.94785500  0.59102300  1
  C  C36  1  0.15959400  0.55214500  0.09102300  1
  C  C37  1  0.84040600  0.44785500  0.09102300  1
  C  C38  1  0.05214500  0.65959400  0.59102300  1
  C  C39  1  0.94785500  0.34040600  0.59102300  1
  C  C40  1  0.55214500  0.84040600  0.09102300  1
  C  C41  1  0.44785500  0.15959400  0.09102300  1
  C  C42  1  0.92424800  0.71986800  0.35270400  1
  C  C43  1  0.07575200  0.28013200  0.35270400  1
  C  C44  1  0.57575200  0.21986800  0.85270400  1
  C  C45  1  0.42424800  0.78013200  0.85270400  1
  C  C46  1  0.71986800  0.07575200  0.35270400  1
  C  C47  1  0.28013200  0.92424800  0.35270400  1
  C  C48  1  0.21986800  0.42424800  0.85270400  1
  C  C49  1  0.78013200  0.57575200  0.85270400  1
  C  C50  1  0.07575200  0.28013200  0.64729600  1
  C  C51  1  0.92424800  0.71986800  0.64729600  1
  C  C52  1  0.42424800  0.78013200  0.14729600  1
  C  C53  1  0.57575200  0.21986800  0.14729600  1
  C  C54  1  0.28013200  0.92424800  0.64729600  1
  C  C55  1  0.71986800  0.07575200  0.64729600  1
  C  C56  1  0.78013200  0.57575200  0.14729600  1
  C  C57  1  0.21986800  0.42424800  0.14729600  1
  C  C58  1  0.86422700  0.36422700  0.25000000  1
  C  C59  1  0.13577300  0.63577300  0.25000000  1
  C  C60  1  0.63577300  0.86422700  0.75000000  1
  C  C61  1  0.36422700  0.13577300  0.75000000  1
  C  C62  1  0.36422700  0.13577300  0.25000000  1
  C  C63  1  0.63577300  0.86422700  0.25000000  1
  C  C64  1  0.86422700  0.36422700  0.75000000  1
  C  C65  1  0.13577300  0.63577300  0.75000000  1
  C  C66  1  0.68965300  0.58525500  0.28067400  1
  C  C67  1  0.31034700  0.41474500  0.28067400  1
  C  C68  1  0.81034700  0.08525500  0.78067400  1
  C  C69  1  0.18965300  0.91474500  0.78067400  1
  C  C70  1  0.58525500  0.31034700  0.28067400  1
  C  C71  1  0.41474500  0.68965300  0.28067400  1
  C  C72  1  0.08525500  0.18965300  0.78067400  1
  C  C73  1  0.91474500  0.81034700  0.78067400  1
  C  C74  1  0.31034700  0.41474500  0.71932600  1
  C  C75  1  0.68965300  0.58525500  0.71932600  1
  C  C76  1  0.18965300  0.91474500  0.21932600  1
  C  C77  1  0.81034700  0.08525500  0.21932600  1
  C  C78  1  0.41474500  0.68965300  0.71932600  1
  C  C79  1  0.58525500  0.31034700  0.71932600  1
  C  C80  1  0.91474500  0.81034700  0.21932600  1
  C  C81  1  0.08525500  0.18965300  0.21932600  1
  C  C82  1  0.59999800  0.76421900  0.40676800  1
  C  C83  1  0.40000200  0.23578100  0.40676800  1
  C  C84  1  0.90000200  0.26421900  0.90676800  1
  C  C85  1  0.09999800  0.73578100  0.90676800  1
  C  C86  1  0.76421900  0.40000200  0.40676800  1
  C  C87  1  0.23578100  0.59999800  0.40676800  1
  C  C88  1  0.26421900  0.09999800  0.90676800  1
  C  C89  1  0.73578100  0.90000200  0.90676800  1
  C  C90  1  0.40000200  0.23578100  0.59323200  1
  C  C91  1  0.59999800  0.76421900  0.59323200  1
  C  C92  1  0.09999800  0.73578100  0.09323200  1
  C  C93  1  0.90000200  0.26421900  0.09323200  1
  C  C94  1  0.23578100  0.59999800  0.59323200  1
  C  C95  1  0.76421900  0.40000200  0.59323200  1
  C  C96  1  0.73578100  0.90000200  0.09323200  1
  C  C97  1  0.26421900  0.09999800  0.09323200  1
  C  C98  1  0.94971900  0.70289700  0.41083400  1
  C  C99  1  0.05028100  0.29710300  0.41083400  1
  C  C100  1  0.55028100  0.20289700  0.91083400  1
  C  C101  1  0.44971900  0.79710300  0.91083400  1
  C  C102  1  0.70289700  0.05028100  0.41083400  1
  C  C103  1  0.29710300  0.94971900  0.41083400  1
  C  C104  1  0.20289700  0.44971900  0.91083400  1
  C  C105  1  0.79710300  0.55028100  0.91083400  1
  C  C106  1  0.05028100  0.29710300  0.58916600  1
  C  C107  1  0.94971900  0.70289700  0.58916600  1
  C  C108  1  0.44971900  0.79710300  0.08916600  1
  C  C109  1  0.55028100  0.20289700  0.08916600  1
  C  C110  1  0.29710300  0.94971900  0.58916600  1
  C  C111  1  0.70289700  0.05028100  0.58916600  1
  C  C112  1  0.79710300  0.55028100  0.08916600  1
  C  C113  1  0.20289700  0.44971900  0.08916600  1
  C  C114  1  0.50000000  0.50000000  0.50000000  1
  C  C115  1  0.00000000  0.00000000  0.00000000  1
