# generated using pymatgen
data_Cu6Ni3C13
_symmetry_space_group_name_H-M   'P 1'
_cell_length_a   8.05277724
_cell_length_b   8.05277724
_cell_length_c   8.05277733
_cell_angle_alpha   97.92861607
_cell_angle_beta   97.92861607
_cell_angle_gamma   97.92861851
_symmetry_Int_Tables_number   1
_chemical_formula_structural   Cu6Ni3C13
_chemical_formula_sum   'Cu12 Ni6 C26'
_cell_volume   505.66379657
_cell_formula_units_Z   2
loop_
 _symmetry_equiv_pos_site_id
 _symmetry_equiv_pos_as_xyz
  1  'x, y, z'
loop_
 _atom_site_type_symbol
 _atom_site_label
 _atom_site_symmetry_multiplicity
 _atom_site_fract_x
 _atom_site_fract_y
 _atom_site_fract_z
 _atom_site_occupancy
  C  C0  1  0.50000000  0.50000000  0.50000000  1
  C  C1  1  0.00000000  0.00000000  0.00000000  1
  C  C2  1  0.27895500  0.23713100  0.54133400  1
  C  C3  1  0.54133400  0.27895500  0.23713100  1
  C  C4  1  0.23713100  0.54133400  0.27895500  1
  C  C5  1  0.04133400  0.73713100  0.77895500  1
  C  C6  1  0.77895500  0.04133400  0.73713100  1
  C  C7  1  0.73713100  0.77895500  0.04133400  1
  C  C8  1  0.72104500  0.76286900  0.45866600  1
  C  C9  1  0.45866600  0.72104500  0.76286900  1
  C  C10  1  0.76286900  0.45866600  0.72104500  1
  C  C11  1  0.95866600  0.26286900  0.22104500  1
  C  C12  1  0.22104500  0.95866600  0.26286900  1
  C  C13  1  0.26286900  0.22104500  0.95866600  1
  C  C14  1  0.20442200  0.40834600  0.61390400  1
  C  C15  1  0.61390400  0.20442200  0.40834600  1
  C  C16  1  0.40834600  0.61390400  0.20442200  1
  C  C17  1  0.11390400  0.90834600  0.70442200  1
  C  C18  1  0.70442200  0.11390400  0.90834600  1
  C  C19  1  0.90834600  0.70442200  0.11390400  1
  C  C20  1  0.79557800  0.59165400  0.38609600  1
  C  C21  1  0.38609600  0.79557800  0.59165400  1
  C  C22  1  0.59165400  0.38609600  0.79557800  1
  C  C23  1  0.88609600  0.09165400  0.29557800  1
  C  C24  1  0.29557800  0.88609600  0.09165400  1
  C  C25  1  0.09165400  0.29557800  0.88609600  1
  Ni  Ni26  1  0.97793100  0.52206900  0.25000000  1
  Ni  Ni27  1  0.25000000  0.97793100  0.52206900  1
  Ni  Ni28  1  0.52206900  0.25000000  0.97793100  1
  Ni  Ni29  1  0.75000000  0.02206900  0.47793100  1
  Ni  Ni30  1  0.47793100  0.75000000  0.02206900  1
  Ni  Ni31  1  0.02206900  0.47793100  0.75000000  1
  Cu  Cu32  1  0.29129100  0.36386700  0.55039700  1
  Cu  Cu33  1  0.55039700  0.29129100  0.36386700  1
  Cu  Cu34  1  0.36386700  0.55039700  0.29129100  1
  Cu  Cu35  1  0.05039700  0.86386700  0.79129100  1
  Cu  Cu36  1  0.79129100  0.05039700  0.86386700  1
  Cu  Cu37  1  0.86386700  0.79129100  0.05039700  1
  Cu  Cu38  1  0.70870900  0.63613300  0.44960300  1
  Cu  Cu39  1  0.44960300  0.70870900  0.63613300  1
  Cu  Cu40  1  0.63613300  0.44960300  0.70870900  1
  Cu  Cu41  1  0.94960300  0.13613300  0.20870900  1
  Cu  Cu42  1  0.20870900  0.94960300  0.13613300  1
  Cu  Cu43  1  0.13613300  0.20870900  0.94960300  1
