# generated using pymatgen
data_Cu2Ni4C11
_symmetry_space_group_name_H-M   'P 1'
_cell_length_a   8.86411573
_cell_length_b   8.86411573
_cell_length_c   4.61165700
_cell_angle_alpha   90.00000000
_cell_angle_beta   90.00000000
_cell_angle_gamma   120.61995638
_symmetry_Int_Tables_number   1
_chemical_formula_structural   Cu2Ni4C11
_chemical_formula_sum   'Cu4 Ni8 C22'
_cell_volume   311.82529942
_cell_formula_units_Z   2
loop_
 _symmetry_equiv_pos_site_id
 _symmetry_equiv_pos_as_xyz
  1  'x, y, z'
loop_
 _atom_site_type_symbol
 _atom_site_label
 _atom_site_symmetry_multiplicity
 _atom_site_fract_x
 _atom_site_fract_y
 _atom_site_fract_z
 _atom_site_occupancy
  Ni  Ni0  1  0.87971500  0.77488300  0.99422400  1
  Ni  Ni1  1  0.22511700  0.12028500  0.99422400  1
  Ni  Ni2  1  0.12028500  0.22511700  0.49422400  1
  Ni  Ni3  1  0.77488300  0.87971500  0.49422400  1
  Ni  Ni4  1  0.89413200  0.45434700  0.99853100  1
  Ni  Ni5  1  0.54565300  0.10586800  0.99853100  1
  Ni  Ni6  1  0.10586800  0.54565300  0.49853100  1
  Ni  Ni7  1  0.45434700  0.89413200  0.49853100  1
  Cu  Cu8  1  0.20992700  0.43871400  0.99731300  1
  Cu  Cu9  1  0.56128600  0.79007300  0.99731300  1
  Cu  Cu10  1  0.79007300  0.56128600  0.49731300  1
  Cu  Cu11  1  0.43871400  0.20992700  0.49731300  1
  C  C12  1  0.86406800  0.13593200  0.68399500  1
  C  C13  1  0.13593200  0.86406800  0.18399500  1
  C  C14  1  0.80193900  0.19806100  0.19670900  1
  C  C15  1  0.19806100  0.80193900  0.69670900  1
  C  C16  1  0.16374000  0.41282400  0.64966300  1
  C  C17  1  0.58717600  0.83626000  0.64966300  1
  C  C18  1  0.83626000  0.58717600  0.14966300  1
  C  C19  1  0.41282400  0.16374000  0.14966300  1
  C  C20  1  0.16801800  0.25267000  0.14578100  1
  C  C21  1  0.74733000  0.83198200  0.14578100  1
  C  C22  1  0.83198200  0.74733000  0.64578100  1
  C  C23  1  0.25267000  0.16801800  0.64578100  1
  C  C24  1  0.08163900  0.49968900  0.15068300  1
  C  C25  1  0.50031100  0.91836100  0.15068300  1
  C  C26  1  0.91836100  0.50031100  0.65068300  1
  C  C27  1  0.49968900  0.08163900  0.65068300  1
  C  C28  1  0.58568000  0.41432000  0.55656500  1
  C  C29  1  0.41432000  0.58568000  0.05656500  1
  C  C30  1  0.91234200  0.08765800  0.54666800  1
  C  C31  1  0.08765800  0.91234200  0.04666800  1
  C  C32  1  0.75449500  0.24550500  0.05587100  1
  C  C33  1  0.24550500  0.75449500  0.55587100  1
