# generated using pymatgen
data_Cu3Ni2C15
_symmetry_space_group_name_H-M   'P 1'
_cell_length_a   5.05430979
_cell_length_b   5.05430979
_cell_length_c   20.42423955
_cell_angle_alpha   89.81528298
_cell_angle_beta   89.81528298
_cell_angle_gamma   66.37279441
_symmetry_Int_Tables_number   1
_chemical_formula_structural   Cu3Ni2C15
_chemical_formula_sum   'Cu6 Ni4 C30'
_cell_volume   478.01734350
_cell_formula_units_Z   2
loop_
 _symmetry_equiv_pos_site_id
 _symmetry_equiv_pos_as_xyz
  1  'x, y, z'
loop_
 _atom_site_type_symbol
 _atom_site_label
 _atom_site_symmetry_multiplicity
 _atom_site_fract_x
 _atom_site_fract_y
 _atom_site_fract_z
 _atom_site_occupancy
  C  C0  1  0.99353500  0.99353500  0.64948600  1
  C  C1  1  0.66432600  0.66432600  0.41244900  1
  C  C2  1  0.66720300  0.66720300  0.72572100  1
  C  C3  1  0.33279700  0.33279700  0.27427900  1
  C  C4  1  0.00646500  0.00646500  0.35051400  1
  C  C5  1  0.33567400  0.33567400  0.58755100  1
  Ni  Ni6  1  0.00000000  0.00000000  0.00000000  1
  Ni  Ni7  1  0.99893100  0.99893100  0.82001200  1
  Ni  Ni8  1  0.00106900  0.00106900  0.17998800  1
  Ni  Ni9  1  0.00000000  0.00000000  0.50000000  1
  Cu  Cu10  1  0.65285800  0.65285800  0.25521800  1
  Cu  Cu11  1  0.64242100  0.64242100  0.89647500  1
  Cu  Cu12  1  0.64100000  0.64100000  0.58576800  1
  Cu  Cu13  1  0.35757900  0.35757900  0.10352500  1
  Cu  Cu14  1  0.35900000  0.35900000  0.41423200  1
  Cu  Cu15  1  0.34714200  0.34714200  0.74478200  1
  C  C16  1  0.29985800  0.76494200  0.89339200  1
  C  C17  1  0.30948100  0.75851800  0.25053800  1
  C  C18  1  0.30475900  0.75216300  0.59266100  1
  C  C19  1  0.23505800  0.70014200  0.10660800  1
  C  C20  1  0.24783700  0.69524100  0.40733900  1
  C  C21  1  0.24148200  0.69051900  0.74946200  1
  C  C22  1  0.27111800  0.27111800  0.03873700  1
  C  C23  1  0.23948000  0.23948000  0.35772800  1
  C  C24  1  0.25320500  0.25320500  0.68309500  1
  C  C25  1  0.75120300  0.75120300  0.83396200  1
  C  C26  1  0.72888200  0.72888200  0.96126300  1
  C  C27  1  0.75954700  0.75954700  0.19289000  1
  C  C28  1  0.24045300  0.24045300  0.80711000  1
  C  C29  1  0.24879700  0.24879700  0.16603800  1
  C  C30  1  0.74679500  0.74679500  0.31690500  1
  C  C31  1  0.28241200  0.28241200  0.48296500  1
  C  C32  1  0.71758800  0.71758800  0.51703500  1
  C  C33  1  0.76052000  0.76052000  0.64227200  1
  C  C34  1  0.70014200  0.23505800  0.10660800  1
  C  C35  1  0.69051900  0.24148200  0.74946200  1
  C  C36  1  0.69524100  0.24783700  0.40733900  1
  C  C37  1  0.76494200  0.29985800  0.89339200  1
  C  C38  1  0.75216300  0.30475900  0.59266100  1
  C  C39  1  0.75851800  0.30948100  0.25053800  1
