# generated using pymatgen
data_CuNi3C11
_symmetry_space_group_name_H-M   'P 1'
_cell_length_a   5.86069843
_cell_length_b   5.86069843
_cell_length_c   9.50882021
_cell_angle_alpha   89.56364926
_cell_angle_beta   89.56364926
_cell_angle_gamma   118.83148683
_symmetry_Int_Tables_number   1
_chemical_formula_structural   CuNi3C11
_chemical_formula_sum   'Cu2 Ni6 C22'
_cell_volume   286.08926412
_cell_formula_units_Z   2
loop_
 _symmetry_equiv_pos_site_id
 _symmetry_equiv_pos_as_xyz
  1  'x, y, z'
loop_
 _atom_site_type_symbol
 _atom_site_label
 _atom_site_symmetry_multiplicity
 _atom_site_fract_x
 _atom_site_fract_y
 _atom_site_fract_z
 _atom_site_occupancy
  C  C0  1  0.82543700  0.64736300  0.44521000  1
  C  C1  1  0.34673800  0.16461500  0.44220900  1
  C  C2  1  0.83551500  0.17317300  0.44302600  1
  C  C3  1  0.17317300  0.83551500  0.94302600  1
  C  C4  1  0.64736300  0.82543700  0.94521000  1
  C  C5  1  0.16461500  0.34673800  0.94220900  1
  Ni  Ni6  1  0.83439200  0.66105200  0.71548000  1
  Ni  Ni7  1  0.34102600  0.16599600  0.71439700  1
  Ni  Ni8  1  0.83744000  0.16489300  0.71136000  1
  Ni  Ni9  1  0.16489300  0.83744000  0.21136000  1
  Ni  Ni10  1  0.66105200  0.83439200  0.21548000  1
  Ni  Ni11  1  0.16599600  0.34102600  0.21439700  1
  Cu  Cu12  1  0.65773000  0.33688400  0.98980100  1
  Cu  Cu13  1  0.33688400  0.65773000  0.48980100  1
  C  C14  1  0.80966700  0.67665500  0.09177500  1
  C  C15  1  0.51546600  0.48476600  0.83709100  1
  C  C16  1  0.70487900  0.35131100  0.59840400  1
  C  C17  1  0.97076300  0.98047300  0.82458900  1
  C  C18  1  0.98047300  0.97076300  0.32458900  1
  C  C19  1  0.30756700  0.16418500  0.09235900  1
  C  C20  1  0.96643600  0.50091200  0.85249400  1
  C  C21  1  0.52022000  0.04227100  0.84236700  1
  C  C22  1  0.83312500  0.16317100  0.10281100  1
  C  C23  1  0.16317100  0.83312500  0.60281100  1
  C  C24  1  0.50091200  0.96643600  0.35249400  1
  C  C25  1  0.35131100  0.70487900  0.09840400  1
  C  C26  1  0.04227100  0.52022000  0.34236700  1
  C  C27  1  0.67665500  0.80966700  0.59177500  1
  C  C28  1  0.48476600  0.51546600  0.33709100  1
  C  C29  1  0.16418500  0.30756700  0.59235900  1
