# generated using pymatgen
data_Cu3(Ni2C)2
_symmetry_space_group_name_H-M   'P 1'
_cell_length_a   5.46264300
_cell_length_b   9.19941200
_cell_length_c   12.75350200
_cell_angle_alpha   90.00000000
_cell_angle_beta   90.00000000
_cell_angle_gamma   90.00000000
_symmetry_Int_Tables_number   1
_chemical_formula_structural   Cu3(Ni2C)2
_chemical_formula_sum   'Cu12 Ni16 C8'
_cell_volume   640.90305683
_cell_formula_units_Z   4
loop_
 _symmetry_equiv_pos_site_id
 _symmetry_equiv_pos_as_xyz
  1  'x, y, z'
loop_
 _atom_site_type_symbol
 _atom_site_label
 _atom_site_symmetry_multiplicity
 _atom_site_fract_x
 _atom_site_fract_y
 _atom_site_fract_z
 _atom_site_occupancy
  C  C0  1  0.08967300  0.98879600  0.50530000  1
  C  C1  1  0.41032700  0.01120400  0.00530000  1
  C  C2  1  0.58967300  0.51120400  0.49470000  1
  C  C3  1  0.91032700  0.48879600  0.99470000  1
  C  C4  1  0.04719100  0.20869700  0.16029400  1
  C  C5  1  0.45280900  0.79130300  0.66029400  1
  C  C6  1  0.54719100  0.29130300  0.83970600  1
  C  C7  1  0.95280900  0.70869700  0.33970600  1
  Ni  Ni8  1  0.12410800  0.12916200  0.05349800  1
  Ni  Ni9  1  0.08578300  0.84712900  0.38866700  1
  Ni  Ni10  1  0.15112100  0.62908400  0.29336300  1
  Ni  Ni11  1  0.25911000  0.24866000  0.21847400  1
  Ni  Ni12  1  0.24089000  0.75134000  0.71847400  1
  Ni  Ni13  1  0.34887900  0.37091600  0.79336300  1
  Ni  Ni14  1  0.41421700  0.15287100  0.88866700  1
  Ni  Ni15  1  0.37589200  0.87083800  0.55349800  1
  Ni  Ni16  1  0.62410800  0.37083800  0.94650200  1
  Ni  Ni17  1  0.58578300  0.65287100  0.61133300  1
  Ni  Ni18  1  0.65112100  0.87091600  0.70663700  1
  Ni  Ni19  1  0.75911000  0.25134000  0.78152600  1
  Ni  Ni20  1  0.74089000  0.74866000  0.28152600  1
  Ni  Ni21  1  0.84887900  0.12908400  0.20663700  1
  Ni  Ni22  1  0.91421700  0.34712900  0.11133300  1
  Ni  Ni23  1  0.87589200  0.62916200  0.44650200  1
  Cu  Cu24  1  0.04735000  0.07157400  0.63920200  1
  Cu  Cu25  1  0.22777300  0.55122500  0.03320300  1
  Cu  Cu26  1  0.28209200  0.12759200  0.43791600  1
  Cu  Cu27  1  0.21790800  0.87240800  0.93791600  1
  Cu  Cu28  1  0.27222700  0.44877500  0.53320300  1
  Cu  Cu29  1  0.45265000  0.92842600  0.13920200  1
  Cu  Cu30  1  0.54735000  0.42842600  0.36079800  1
  Cu  Cu31  1  0.72777300  0.94877500  0.96679700  1
  Cu  Cu32  1  0.78209200  0.37240800  0.56208400  1
  Cu  Cu33  1  0.71790800  0.62759200  0.06208400  1
  Cu  Cu34  1  0.77222700  0.05122500  0.46679700  1
  Cu  Cu35  1  0.95265000  0.57157400  0.86079800  1
