# generated using pymatgen
data_Cu3NiC3
_symmetry_space_group_name_H-M   'P 1'
_cell_length_a   6.24572426
_cell_length_b   6.38033553
_cell_length_c   9.09444392
_cell_angle_alpha   89.99631521
_cell_angle_beta   90.55712041
_cell_angle_gamma   90.00903883
_symmetry_Int_Tables_number   1
_chemical_formula_structural   Cu3NiC3
_chemical_formula_sum   'Cu12 Ni4 C12'
_cell_volume   362.39478232
_cell_formula_units_Z   4
loop_
 _symmetry_equiv_pos_site_id
 _symmetry_equiv_pos_as_xyz
  1  'x, y, z'
loop_
 _atom_site_type_symbol
 _atom_site_label
 _atom_site_symmetry_multiplicity
 _atom_site_fract_x
 _atom_site_fract_y
 _atom_site_fract_z
 _atom_site_occupancy
  C  C0  1  0.00088500  0.96454700  0.02119700  1
  C  C1  1  0.49921200  0.03544600  0.22897400  1
  C  C2  1  0.50068400  0.53543300  0.52117900  1
  C  C3  1  0.99921400  0.46448600  0.72875400  1
  C  C4  1  0.75000400  0.50020900  0.12510400  1
  C  C5  1  0.24976400  0.00006600  0.62514100  1
  C  C6  1  0.25017000  0.50032900  0.12460900  1
  C  C7  1  0.74984400  0.00010600  0.62515500  1
  C  C8  1  0.00024100  0.25631900  0.39084700  1
  C  C9  1  0.99979400  0.75655700  0.35882000  1
  C  C10  1  0.50058700  0.24336100  0.89115900  1
  C  C11  1  0.50004100  0.74356100  0.85898400  1
  Ni  Ni12  1  0.99923900  0.70331800  0.13853700  1
  Ni  Ni13  1  0.50091900  0.29684000  0.11127700  1
  Ni  Ni14  1  0.49907900  0.79678300  0.63879700  1
  Ni  Ni15  1  0.00065600  0.20314400  0.61118900  1
  Cu  Cu16  1  0.00066500  0.23610800  0.14984000  1
  Cu  Cu17  1  0.49934900  0.76393700  0.10017200  1
  Cu  Cu18  1  0.50046500  0.26388400  0.64997300  1
  Cu  Cu19  1  0.99915500  0.73611000  0.60017600  1
  Cu  Cu20  1  0.24607700  0.00036200  0.36822200  1
  Cu  Cu21  1  0.75510600  0.00146900  0.36985500  1
  Cu  Cu22  1  0.24484800  0.50163300  0.38006000  1
  Cu  Cu23  1  0.75376300  0.50043800  0.38166000  1
  Cu  Cu24  1  0.74615200  0.49941700  0.86832200  1
  Cu  Cu25  1  0.25521300  0.49841000  0.86997100  1
  Cu  Cu26  1  0.25390100  0.99952100  0.88175900  1
  Cu  Cu27  1  0.74497600  0.99820800  0.88026700  1
