# generated using pymatgen
data_Cu2NiC7
_symmetry_space_group_name_H-M   'P 1'
_cell_length_a   7.53855400
_cell_length_b   8.71933400
_cell_length_c   10.69137455
_cell_angle_alpha   67.95625299
_cell_angle_beta   90.00000000
_cell_angle_gamma   90.00000000
_symmetry_Int_Tables_number   1
_chemical_formula_structural   Cu2NiC7
_chemical_formula_sum   'Cu8 Ni4 C28'
_cell_volume   651.38334206
_cell_formula_units_Z   4
loop_
 _symmetry_equiv_pos_site_id
 _symmetry_equiv_pos_as_xyz
  1  'x, y, z'
loop_
 _atom_site_type_symbol
 _atom_site_label
 _atom_site_symmetry_multiplicity
 _atom_site_fract_x
 _atom_site_fract_y
 _atom_site_fract_z
 _atom_site_occupancy
  C  C0  1  0.75245500  0.83995600  0.79832300  1
  C  C1  1  0.74754500  0.33995600  0.79832300  1
  C  C2  1  0.25245500  0.66004400  0.20167700  1
  C  C3  1  0.24754500  0.16004400  0.20167700  1
  Ni  Ni4  1  0.00000000  0.50000000  0.00000000  1
  Ni  Ni5  1  0.50000000  0.00000000  0.00000000  1
  Ni  Ni6  1  0.00000000  0.50000000  0.50000000  1
  Ni  Ni7  1  0.50000000  0.00000000  0.50000000  1
  Cu  Cu8  1  0.30293100  0.57275400  0.87386700  1
  Cu  Cu9  1  0.19706900  0.07275400  0.87386700  1
  Cu  Cu10  1  0.06526000  0.79552100  0.50605400  1
  Cu  Cu11  1  0.56526000  0.70447900  0.49394600  1
  Cu  Cu12  1  0.43474000  0.29552100  0.50605400  1
  Cu  Cu13  1  0.93474000  0.20447900  0.49394600  1
  Cu  Cu14  1  0.80293100  0.92724600  0.12613300  1
  Cu  Cu15  1  0.69706900  0.42724600  0.12613300  1
  C  C16  1  0.45259400  0.68532400  0.94183900  1
  C  C17  1  0.84263400  0.51193100  0.97185000  1
  C  C18  1  0.04740600  0.18532400  0.94183900  1
  C  C19  1  0.15320600  0.73430700  0.77009900  1
  C  C20  1  0.65736600  0.01193100  0.97185000  1
  C  C21  1  0.54307500  0.64983300  0.67623500  1
  C  C22  1  0.34679400  0.23430700  0.77009900  1
  C  C23  1  0.85821700  0.88579900  0.53986900  1
  C  C24  1  0.97146000  0.58009700  0.56959500  1
  C  C25  1  0.95692500  0.14983300  0.67623500  1
  C  C26  1  0.47146000  0.91990300  0.43040500  1
  C  C27  1  0.64178300  0.38579900  0.53986900  1
  C  C28  1  0.35821700  0.61420100  0.46013100  1
  C  C29  1  0.52854000  0.08009700  0.56959500  1
  C  C30  1  0.04307500  0.85016700  0.32376500  1
  C  C31  1  0.02854000  0.41990300  0.43040500  1
  C  C32  1  0.14178300  0.11420100  0.46013100  1
  C  C33  1  0.65320600  0.76569300  0.22990100  1
  C  C34  1  0.45692500  0.35016700  0.32376500  1
  C  C35  1  0.34263400  0.98806900  0.02815000  1
  C  C36  1  0.84679400  0.26569300  0.22990100  1
  C  C37  1  0.95259400  0.81467600  0.05816100  1
  C  C38  1  0.15736600  0.48806900  0.02815000  1
  C  C39  1  0.54740600  0.31467600  0.05816100  1
