# generated using pymatgen
data_Cu2Ni3C23
_symmetry_space_group_name_H-M   'P 1'
_cell_length_a   5.96032600
_cell_length_b   5.96987808
_cell_length_c   9.72144470
_cell_angle_alpha   89.13666511
_cell_angle_beta   89.21491005
_cell_angle_gamma   60.18824204
_symmetry_Int_Tables_number   1
_chemical_formula_structural   Cu2Ni3C23
_chemical_formula_sum   'Cu2 Ni3 C23'
_cell_volume   300.09389051
_cell_formula_units_Z   1
loop_
 _symmetry_equiv_pos_site_id
 _symmetry_equiv_pos_as_xyz
  1  'x, y, z'
loop_
 _atom_site_type_symbol
 _atom_site_label
 _atom_site_symmetry_multiplicity
 _atom_site_fract_x
 _atom_site_fract_y
 _atom_site_fract_z
 _atom_site_occupancy
  C  C0  1  0.33682700  0.32910100  0.89735700  1
  C  C1  1  0.99536600  0.00230900  0.99554800  1
  C  C2  1  0.99698300  0.99797400  0.49296700  1
  C  C3  1  0.67757100  0.66748200  0.39231600  1
  C  C4  1  0.82707900  0.82409600  0.72029800  1
  C  C5  1  0.65731600  0.16624600  0.21830500  1
  C  C6  1  0.81816800  0.34035400  0.71268200  1
  Ni  Ni7  1  0.17287100  0.65613400  0.21488000  1
  Ni  Ni8  1  0.17710800  0.16487300  0.21027000  1
  Ni  Ni9  1  0.33941800  0.83072300  0.71038900  1
  Cu  Cu10  1  0.31956500  0.34711300  0.49301700  1
  Cu  Cu11  1  0.66035000  0.66615100  0.99529900  1
  C  C12  1  0.15579600  0.68339600  0.59885700  1
  C  C13  1  0.04142200  0.49105000  0.33417300  1
  C  C14  1  0.38074600  0.30779000  0.09991800  1
  C  C15  1  0.97002700  0.01913600  0.30594100  1
  C  C16  1  0.97588200  0.99949400  0.80681300  1
  C  C17  1  0.13779300  0.18029100  0.60152400  1
  C  C18  1  0.48305300  0.48474100  0.33128700  1
  C  C19  1  0.50488700  0.03911400  0.34452700  1
  C  C20  1  0.31263400  0.83296700  0.09855900  1
  C  C21  1  0.66878200  0.17065000  0.60150200  1
  C  C22  1  0.52446600  0.96149500  0.84275500  1
  C  C23  1  0.53949400  0.49388700  0.83374900  1
  C  C24  1  0.69769400  0.66650300  0.60283900  1
  C  C25  1  0.83814400  0.83765900  0.10865900  1
  C  C26  1  0.96697100  0.51588800  0.84066700  1
  C  C27  1  0.82358500  0.32367800  0.10274000  1
