# generated using pymatgen
data_Cu6Ni4C25
_symmetry_space_group_name_H-M   'P 1'
_cell_length_a   9.91548444
_cell_length_b   9.91548444
_cell_length_c   9.24728722
_cell_angle_alpha   83.98813249
_cell_angle_beta   83.98813249
_cell_angle_gamma   53.18157933
_symmetry_Int_Tables_number   1
_chemical_formula_structural   Cu6Ni4C25
_chemical_formula_sum   'Cu12 Ni8 C50'
_cell_volume   722.81170207
_cell_formula_units_Z   2
loop_
 _symmetry_equiv_pos_site_id
 _symmetry_equiv_pos_as_xyz
  1  'x, y, z'
loop_
 _atom_site_type_symbol
 _atom_site_label
 _atom_site_symmetry_multiplicity
 _atom_site_fract_x
 _atom_site_fract_y
 _atom_site_fract_z
 _atom_site_occupancy
  C  C0  1  0.10372400  0.89627600  0.75000000  1
  C  C1  1  0.89627600  0.10372400  0.25000000  1
  C  C2  1  0.76215400  0.61296400  0.68282900  1
  C  C3  1  0.38703600  0.23784600  0.81717100  1
  C  C4  1  0.23784600  0.38703600  0.31717100  1
  C  C5  1  0.61296400  0.76215400  0.18282900  1
  C  C6  1  0.15195400  0.17934500  0.61419900  1
  C  C7  1  0.82065500  0.84804600  0.88580100  1
  C  C8  1  0.84804600  0.82065500  0.38580100  1
  C  C9  1  0.17934500  0.15195400  0.11419900  1
  Ni  Ni10  1  0.88414600  0.27843800  0.88962000  1
  Ni  Ni11  1  0.72156200  0.11585400  0.61038000  1
  Ni  Ni12  1  0.11585400  0.72156200  0.11038100  1
  Ni  Ni13  1  0.27843800  0.88414600  0.38962000  1
  Ni  Ni14  1  0.41196400  0.89916200  0.85813100  1
  Ni  Ni15  1  0.10083800  0.58803600  0.64186900  1
  Ni  Ni16  1  0.58803600  0.10083800  0.14186900  1
  Ni  Ni17  1  0.89916200  0.41196400  0.35813100  1
  Cu  Cu18  1  0.62573900  0.45776500  0.62763400  1
  Cu  Cu19  1  0.54223500  0.37426100  0.87236600  1
  Cu  Cu20  1  0.37426100  0.54223500  0.37236600  1
  Cu  Cu21  1  0.45776500  0.62573900  0.12763400  1
  Cu  Cu22  1  0.48769000  0.64476600  0.70564000  1
  Cu  Cu23  1  0.35523400  0.51231000  0.79436000  1
  Cu  Cu24  1  0.51231000  0.35523400  0.29436000  1
  Cu  Cu25  1  0.64476600  0.48769000  0.20564000  1
  Cu  Cu26  1  0.40176100  0.16979300  0.52104800  1
  Cu  Cu27  1  0.83020700  0.59823900  0.97895200  1
  Cu  Cu28  1  0.59823900  0.83020700  0.47895200  1
  Cu  Cu29  1  0.16979300  0.40176100  0.02104800  1
  C  C30  1  0.33613600  0.81286700  0.82019700  1
  C  C31  1  0.18713300  0.66386400  0.67980300  1
  C  C32  1  0.66386400  0.18713300  0.17980300  1
  C  C33  1  0.81286700  0.33613600  0.32019700  1
  C  C34  1  0.01257500  0.14992800  0.77071400  1
  C  C35  1  0.85007200  0.98742500  0.72928600  1
  C  C36  1  0.98742500  0.85007200  0.22928600  1
  C  C37  1  0.14992800  0.01257500  0.27071400  1
  C  C38  1  0.72117100  0.30115700  0.90626800  1
  C  C39  1  0.69884300  0.27882900  0.59373200  1
  C  C40  1  0.27882900  0.69884300  0.09373200  1
  C  C41  1  0.30115700  0.72117100  0.40626800  1
  C  C42  1  0.97801200  0.19983000  0.03825800  1
  C  C43  1  0.80017000  0.02198800  0.46174200  1
  C  C44  1  0.02198800  0.80017000  0.96174200  1
  C  C45  1  0.19983000  0.97801200  0.53825800  1
  C  C46  1  0.86987600  0.44278000  0.84457800  1
  C  C47  1  0.55722000  0.13012400  0.65542200  1
  C  C48  1  0.13012400  0.55722000  0.15542200  1
  C  C49  1  0.44278000  0.86987600  0.34457800  1
  C  C50  1  0.39034300  0.93749300  0.02440100  1
  C  C51  1  0.06250700  0.60965700  0.47559900  1
  C  C52  1  0.60965700  0.06250700  0.97559900  1
  C  C53  1  0.93749300  0.39034300  0.52440100  1
  C  C54  1  0.59285300  0.57593700  0.64332200  1
  C  C55  1  0.42406300  0.40714700  0.85667800  1
  C  C56  1  0.40714700  0.42406300  0.35667800  1
  C  C57  1  0.57593700  0.59285300  0.14332200  1
  C  C58  1  0.32746200  0.07554000  0.77083600  1
  C  C59  1  0.92446000  0.67253800  0.72916400  1
  C  C60  1  0.67253800  0.92446000  0.22916400  1
  C  C61  1  0.07554000  0.32746200  0.27083600  1
  C  C62  1  0.29939100  0.20601200  0.47376500  1
  C  C63  1  0.79398800  0.70060900  0.02623500  1
  C  C64  1  0.70060900  0.79398800  0.52623500  1
  C  C65  1  0.20601200  0.29939100  0.97376500  1
  C  C66  1  0.60155000  0.79317200  0.81546900  1
  C  C67  1  0.20682800  0.39845000  0.68453100  1
  C  C68  1  0.39845000  0.20682800  0.18453100  1
  C  C69  1  0.79317200  0.60155000  0.31546900  1
