# generated using pymatgen
data_Cu2Ni2C9
_symmetry_space_group_name_H-M   'P 1'
_cell_length_a   10.71948400
_cell_length_b   7.01165400
_cell_length_c   10.02582932
_cell_angle_alpha   69.58867004
_cell_angle_beta   90.00000000
_cell_angle_gamma   90.00000000
_symmetry_Int_Tables_number   1
_chemical_formula_structural   Cu2Ni2C9
_chemical_formula_sum   'Cu8 Ni8 C36'
_cell_volume   706.24110022
_cell_formula_units_Z   4
loop_
 _symmetry_equiv_pos_site_id
 _symmetry_equiv_pos_as_xyz
  1  'x, y, z'
loop_
 _atom_site_type_symbol
 _atom_site_label
 _atom_site_symmetry_multiplicity
 _atom_site_fract_x
 _atom_site_fract_y
 _atom_site_fract_z
 _atom_site_occupancy
  C  C0  1  0.52899100  0.13031900  0.69862200  1
  C  C1  1  0.02899100  0.86968100  0.80137800  1
  C  C2  1  0.47100900  0.86968100  0.30137800  1
  C  C3  1  0.97100900  0.13031900  0.19862200  1
  Ni  Ni4  1  0.78064000  0.67838100  0.71301900  1
  Ni  Ni5  1  0.28064000  0.32161900  0.78698100  1
  Ni  Ni6  1  0.21936000  0.32161900  0.28698100  1
  Ni  Ni7  1  0.71936000  0.67838100  0.21301900  1
  Ni  Ni8  1  0.54399500  0.30800400  0.09823900  1
  Ni  Ni9  1  0.04399500  0.69199600  0.40176100  1
  Ni  Ni10  1  0.45600500  0.69199600  0.90176100  1
  Ni  Ni11  1  0.95600500  0.30800400  0.59823900  1
  Cu  Cu12  1  0.57951400  0.65604200  0.64827100  1
  Cu  Cu13  1  0.07951400  0.34395800  0.85172900  1
  Cu  Cu14  1  0.42048600  0.34395800  0.35172900  1
  Cu  Cu15  1  0.92048600  0.65604200  0.14827100  1
  Cu  Cu16  1  0.68188300  0.12765500  0.01502100  1
  Cu  Cu17  1  0.18188300  0.87234500  0.48497900  1
  Cu  Cu18  1  0.31811700  0.87234500  0.98497900  1
  Cu  Cu19  1  0.81811700  0.12765500  0.51502100  1
  C  C20  1  0.52643100  0.79566800  0.74222400  1
  C  C21  1  0.02643100  0.20433200  0.75777600  1
  C  C22  1  0.47356900  0.20433200  0.25777600  1
  C  C23  1  0.97356900  0.79566800  0.24222400  1
  C  C24  1  0.49513100  0.44971900  0.67673300  1
  C  C25  1  0.99513100  0.55028100  0.82326700  1
  C  C26  1  0.50486900  0.55028100  0.32326700  1
  C  C27  1  0.00486900  0.44971900  0.17673300  1
  C  C28  1  0.60243400  0.80028300  0.48004000  1
  C  C29  1  0.10243400  0.19971700  0.01996000  1
  C  C30  1  0.39756600  0.19971700  0.51996000  1
  C  C31  1  0.89756600  0.80028300  0.98004000  1
  C  C32  1  0.72637300  0.56039800  0.71864400  1
  C  C33  1  0.22637300  0.43960200  0.78135600  1
  C  C34  1  0.27362700  0.43960200  0.28135600  1
  C  C35  1  0.77362700  0.56039800  0.21864400  1
  C  C36  1  0.66814100  0.08902800  0.86276900  1
  C  C37  1  0.16814100  0.91097200  0.63723100  1
  C  C38  1  0.33185900  0.91097200  0.13723100  1
  C  C39  1  0.83185900  0.08902800  0.36276900  1
  C  C40  1  0.82438800  0.20078200  0.03805500  1
  C  C41  1  0.32438800  0.79921800  0.46194500  1
  C  C42  1  0.17561200  0.79921800  0.96194500  1
  C  C43  1  0.67561200  0.20078200  0.53805500  1
  C  C44  1  0.63413100  0.92750900  0.15451200  1
  C  C45  1  0.13413100  0.07249100  0.34548800  1
  C  C46  1  0.36586900  0.07249100  0.84548800  1
  C  C47  1  0.86586900  0.92750900  0.65451200  1
  C  C48  1  0.57992700  0.32986300  0.00055400  1
  C  C49  1  0.07992700  0.67013700  0.49944600  1
  C  C50  1  0.42007300  0.67013700  0.99944600  1
  C  C51  1  0.92007300  0.32986300  0.50055400  1
