# generated using pymatgen
data_Cu2Ni10C21
_symmetry_space_group_name_H-M   'P 1'
_cell_length_a   10.02171245
_cell_length_b   10.02171245
_cell_length_c   18.73689901
_cell_angle_alpha   67.70601032
_cell_angle_beta   67.70601032
_cell_angle_gamma   27.45753362
_symmetry_Int_Tables_number   1
_chemical_formula_structural   Cu2Ni10C21
_chemical_formula_sum   'Cu4 Ni20 C42'
_cell_volume   798.79881835
_cell_formula_units_Z   2
loop_
 _symmetry_equiv_pos_site_id
 _symmetry_equiv_pos_as_xyz
  1  'x, y, z'
loop_
 _atom_site_type_symbol
 _atom_site_label
 _atom_site_symmetry_multiplicity
 _atom_site_fract_x
 _atom_site_fract_y
 _atom_site_fract_z
 _atom_site_occupancy
  C  C0  1  0.66664700  0.33335300  0.75000000  1
  C  C1  1  0.33335300  0.66664700  0.25000000  1
  C  C2  1  0.39510900  0.84330100  0.04124200  1
  C  C3  1  0.15669900  0.60489100  0.45875800  1
  C  C4  1  0.60489100  0.15669900  0.95875800  1
  C  C5  1  0.84330100  0.39510900  0.54124200  1
  C  C6  1  0.50177900  0.58485500  0.03525100  1
  C  C7  1  0.41514500  0.49822100  0.46474900  1
  C  C8  1  0.49822100  0.41514500  0.96474900  1
  C  C9  1  0.58485500  0.50177900  0.53525100  1
  C  C10  1  0.11913800  0.24168200  0.95157000  1
  C  C11  1  0.75831800  0.88086200  0.54843000  1
  C  C12  1  0.88086200  0.75831800  0.04843000  1
  C  C13  1  0.24168200  0.11913800  0.45157000  1
  C  C14  1  0.01212700  0.29522700  0.87489000  1
  C  C15  1  0.70477300  0.98787300  0.62511000  1
  C  C16  1  0.98787300  0.70477300  0.12511000  1
  C  C17  1  0.29522700  0.01212700  0.37489000  1
  C  C18  1  0.87907500  0.47561700  0.73723400  1
  C  C19  1  0.52438300  0.12092500  0.76276600  1
  C  C20  1  0.12092500  0.52438300  0.26276600  1
  C  C21  1  0.47561700  0.87907500  0.23723400  1
  C  C22  1  0.76677000  0.70165900  0.76100000  1
  C  C23  1  0.29834100  0.23323000  0.73900000  1
  C  C24  1  0.23323000  0.29834100  0.23900000  1
  C  C25  1  0.70165900  0.76677000  0.26100000  1
  C  C26  1  0.09930100  0.98113500  0.86356000  1
  C  C27  1  0.01886500  0.90069900  0.63644000  1
  C  C28  1  0.90069900  0.01886500  0.13644000  1
  C  C29  1  0.98113500  0.09930100  0.36356000  1
  C  C30  1  0.26775800  0.91946800  0.94915500  1
  C  C31  1  0.08053200  0.73224200  0.55084500  1
  C  C32  1  0.73224200  0.08053200  0.05084500  1
  C  C33  1  0.91946800  0.26775800  0.44915500  1
  C  C34  1  0.13813600  0.59904100  0.85268800  1
  C  C35  1  0.40095900  0.86186400  0.64731200  1
  C  C36  1  0.86186400  0.40095900  0.14731200  1
  C  C37  1  0.59904100  0.13813600  0.35268800  1
  C  C38  1  0.85438400  0.75353300  0.90204600  1
  C  C39  1  0.24646700  0.14561600  0.59795400  1
  C  C40  1  0.14561600  0.24646700  0.09795400  1
  C  C41  1  0.75353300  0.85438400  0.40204600  1
  Ni  Ni42  1  0.34841500  0.48204800  0.81667000  1
  Ni  Ni43  1  0.51795200  0.65158500  0.68333000  1
  Ni  Ni44  1  0.65158500  0.51795200  0.18333000  1
  Ni  Ni45  1  0.48204800  0.34841500  0.31667000  1
  Ni  Ni46  1  0.94577500  0.11991600  0.81632300  1
  Ni  Ni47  1  0.88008400  0.05422500  0.68367700  1
  Ni  Ni48  1  0.05422500  0.88008400  0.18367700  1
  Ni  Ni49  1  0.11991600  0.94577500  0.31632300  1
  Ni  Ni50  1  0.27012100  0.81833800  0.91606400  1
  Ni  Ni51  1  0.18166200  0.72987900  0.58393600  1
  Ni  Ni52  1  0.72987900  0.18166200  0.08393600  1
  Ni  Ni53  1  0.81833800  0.27012100  0.41606400  1
  Ni  Ni54  1  0.42507700  0.75412900  0.00928200  1
  Ni  Ni55  1  0.24587100  0.57492300  0.49071800  1
  Ni  Ni56  1  0.57492300  0.24587100  0.99071800  1
  Ni  Ni57  1  0.75412900  0.42507700  0.50928200  1
  Ni  Ni58  1  0.11844400  0.17215400  0.92402000  1
  Ni  Ni59  1  0.82784600  0.88155600  0.57598000  1
  Ni  Ni60  1  0.88155600  0.82784600  0.07598000  1
  Ni  Ni61  1  0.17215400  0.11844400  0.42402000  1
  Cu  Cu62  1  0.91795200  0.49399300  0.76994800  1
  Cu  Cu63  1  0.50600700  0.08204800  0.73005200  1
  Cu  Cu64  1  0.08204800  0.50600700  0.23005200  1
  Cu  Cu65  1  0.49399300  0.91795200  0.26994800  1
