# generated using pymatgen
data_CuNi3C10
_symmetry_space_group_name_H-M   'P 1'
_cell_length_a   5.86875000
_cell_length_b   5.86877786
_cell_length_c   9.73247900
_cell_angle_alpha   89.99949321
_cell_angle_beta   89.99955219
_cell_angle_gamma   119.99951613
_symmetry_Int_Tables_number   1
_chemical_formula_structural   CuNi3C10
_chemical_formula_sum   'Cu2 Ni6 C20'
_cell_volume   290.30165091
_cell_formula_units_Z   2
loop_
 _symmetry_equiv_pos_site_id
 _symmetry_equiv_pos_as_xyz
  1  'x, y, z'
loop_
 _atom_site_type_symbol
 _atom_site_label
 _atom_site_symmetry_multiplicity
 _atom_site_fract_x
 _atom_site_fract_y
 _atom_site_fract_z
 _atom_site_occupancy
  C  C0  1  0.33335200  0.66669800  0.89513500  1
  C  C1  1  0.99999900  0.00002600  0.99605700  1
  C  C2  1  0.00000600  0.00005500  0.49604400  1
  C  C3  1  0.66665400  0.33331600  0.39514000  1
  Ni  Ni4  1  0.14638300  0.80747400  0.21354400  1
  Ni  Ni5  1  0.19254500  0.33892700  0.21354300  1
  Ni  Ni6  1  0.85366500  0.66108000  0.71353800  1
  Ni  Ni7  1  0.66108100  0.85360700  0.21353100  1
  Ni  Ni8  1  0.33891000  0.19260800  0.71354600  1
  Ni  Ni9  1  0.80740400  0.14632900  0.71352600  1
  Cu  Cu10  1  0.33338600  0.66673600  0.49176000  1
  Cu  Cu11  1  0.66668300  0.33330700  0.99173000  1
  C  C12  1  0.17495400  0.85484900  0.60800700  1
  C  C13  1  0.03533400  0.52956400  0.33158500  1
  C  C14  1  0.33333900  0.66667200  0.10012000  1
  C  C15  1  0.99999000  0.00000500  0.31147100  1
  C  C16  1  0.99998100  0.99999300  0.81146500  1
  C  C17  1  0.14517600  0.32014700  0.60801800  1
  C  C18  1  0.49420400  0.96464800  0.33158300  1
  C  C19  1  0.47042500  0.50576900  0.33157500  1
  C  C20  1  0.32013400  0.14522300  0.10801900  1
  C  C21  1  0.67987100  0.82508000  0.60801200  1
  C  C22  1  0.50578700  0.47045700  0.83156700  1
  C  C23  1  0.52952700  0.03535600  0.83158600  1
  C  C24  1  0.66666800  0.33335100  0.60012000  1
  C  C25  1  0.82509500  0.67988400  0.10801900  1
  C  C26  1  0.96466800  0.49420900  0.83158000  1
  C  C27  1  0.85477800  0.17493000  0.10802100  1
