# generated using pymatgen
data_Cu4Ni2C25
_symmetry_space_group_name_H-M   'P 1'
_cell_length_a   2.97621300
_cell_length_b   9.00350000
_cell_length_c   25.11364900
_cell_angle_alpha   90.00000000
_cell_angle_beta   90.00000000
_cell_angle_gamma   90.00000000
_symmetry_Int_Tables_number   1
_chemical_formula_structural   Cu4Ni2C25
_chemical_formula_sum   'Cu8 Ni4 C50'
_cell_volume   672.95372017
_cell_formula_units_Z   2
loop_
 _symmetry_equiv_pos_site_id
 _symmetry_equiv_pos_as_xyz
  1  'x, y, z'
loop_
 _atom_site_type_symbol
 _atom_site_label
 _atom_site_symmetry_multiplicity
 _atom_site_fract_x
 _atom_site_fract_y
 _atom_site_fract_z
 _atom_site_occupancy
  C  C0  1  0.50000000  0.93763700  0.99803400  1
  C  C1  1  0.50000000  0.95854200  0.19779800  1
  C  C2  1  0.50000000  0.04145800  0.69779800  1
  C  C3  1  0.50000000  0.06236300  0.49803400  1
  C  C4  1  0.50000000  0.43498700  0.50127100  1
  C  C5  1  0.50000000  0.45700700  0.30009000  1
  C  C6  1  0.50000000  0.54299300  0.80009000  1
  C  C7  1  0.50000000  0.56501300  0.00127100  1
  C  C8  1  0.50000000  0.75900500  0.10325900  1
  C  C9  1  0.50000000  0.24099500  0.60325900  1
  C  C10  1  0.50000000  0.25265000  0.39645700  1
  C  C11  1  0.00000000  0.39294000  0.69600500  1
  C  C12  1  0.00000000  0.60706000  0.19600500  1
  C  C13  1  0.50000000  0.74735000  0.89645700  1
  Ni  Ni14  1  0.50000000  0.74850100  0.49979200  1
  Ni  Ni15  1  0.00000000  0.89162800  0.80378100  1
  Ni  Ni16  1  0.00000000  0.10837200  0.30378100  1
  Ni  Ni17  1  0.50000000  0.25149900  0.99979200  1
  Cu  Cu18  1  0.50000000  0.77501300  0.31026600  1
  Cu  Cu19  1  0.00000000  0.88817700  0.58738700  1
  Cu  Cu20  1  0.00000000  0.11182300  0.08738700  1
  Cu  Cu21  1  0.50000000  0.22498700  0.81026600  1
  Cu  Cu22  1  0.50000000  0.27130000  0.19147600  1
  Cu  Cu23  1  0.00000000  0.39146400  0.91234900  1
  Cu  Cu24  1  0.00000000  0.60853600  0.41234900  1
  Cu  Cu25  1  0.50000000  0.72870000  0.69147600  1
  C  C26  1  0.50000000  0.75503400  0.42468100  1
  C  C27  1  0.50000000  0.74264200  0.57525100  1
  C  C28  1  0.00000000  0.79535400  0.94129200  1
  C  C29  1  0.00000000  0.80469900  0.15978100  1
  C  C30  1  0.00000000  0.85615500  0.66511300  1
  C  C31  1  0.50000000  0.84253900  0.75685100  1
  C  C32  1  0.00000000  0.89867700  0.50595100  1
  C  C33  1  0.00000000  0.90713600  0.28361200  1
  C  C34  1  0.50000000  0.93308600  0.85469200  1
  C  C35  1  0.50000000  0.96268300  0.08659200  1
  C  C36  1  0.50000000  0.03731700  0.58659200  1
  C  C37  1  0.50000000  0.06691400  0.35469200  1
  C  C38  1  0.00000000  0.09286400  0.78361200  1
  C  C39  1  0.00000000  0.10132300  0.00595100  1
  C  C40  1  0.50000000  0.15746100  0.25685100  1
  C  C41  1  0.00000000  0.14384500  0.16511300  1
  C  C42  1  0.00000000  0.19530100  0.65978100  1
  C  C43  1  0.00000000  0.20464600  0.44129200  1
  C  C44  1  0.50000000  0.25735800  0.07525100  1
  C  C45  1  0.50000000  0.24496600  0.92468100  1
  C  C46  1  0.00000000  0.29475500  0.55887500  1
  C  C47  1  0.00000000  0.30022100  0.33875300  1
  C  C48  1  0.00000000  0.35268800  0.83530500  1
  C  C49  1  0.50000000  0.33991100  0.74473000  1
  C  C50  1  0.00000000  0.40189400  0.99381500  1
  C  C51  1  0.00000000  0.40308200  0.21801600  1
  C  C52  1  0.50000000  0.43194500  0.64702400  1
  C  C53  1  0.50000000  0.46009100  0.41176600  1
  C  C54  1  0.50000000  0.53990900  0.91176600  1
  C  C55  1  0.50000000  0.56805500  0.14702400  1
  C  C56  1  0.00000000  0.59691800  0.71801600  1
  C  C57  1  0.00000000  0.59810600  0.49381500  1
  C  C58  1  0.50000000  0.66008900  0.24473000  1
  C  C59  1  0.00000000  0.64731200  0.33530500  1
  C  C60  1  0.00000000  0.69977900  0.83875300  1
  C  C61  1  0.00000000  0.70524500  0.05887500  1
