# generated using pymatgen
data_Cu7(Ni2C)2
_symmetry_space_group_name_H-M   'P 1'
_cell_length_a   10.40562400
_cell_length_b   13.06860300
_cell_length_c   25.99456500
_cell_angle_alpha   90.00000000
_cell_angle_beta   90.00000000
_cell_angle_gamma   90.00000000
_symmetry_Int_Tables_number   1
_chemical_formula_structural   Cu7(Ni2C)2
_chemical_formula_sum   'Cu56 Ni32 C16'
_cell_volume   3534.92210543
_cell_formula_units_Z   8
loop_
 _symmetry_equiv_pos_site_id
 _symmetry_equiv_pos_as_xyz
  1  'x, y, z'
loop_
 _atom_site_type_symbol
 _atom_site_label
 _atom_site_symmetry_multiplicity
 _atom_site_fract_x
 _atom_site_fract_y
 _atom_site_fract_z
 _atom_site_occupancy
  Ni  Ni0  1  0.02329900  0.69075300  0.26272300  1
  Ni  Ni1  1  0.97670100  0.19075300  0.23727700  1
  Ni  Ni2  1  0.47670100  0.30924700  0.76272300  1
  Ni  Ni3  1  0.52329900  0.80924700  0.73727700  1
  Ni  Ni4  1  0.97670100  0.30924700  0.73727700  1
  Ni  Ni5  1  0.02329900  0.80924700  0.76272300  1
  Ni  Ni6  1  0.52329900  0.69075300  0.23727700  1
  Ni  Ni7  1  0.47670100  0.19075300  0.26272300  1
  Ni  Ni8  1  0.15213100  0.41041500  0.17236800  1
  Ni  Ni9  1  0.84786900  0.91041500  0.32763200  1
  Ni  Ni10  1  0.34786900  0.58958500  0.67236800  1
  Ni  Ni11  1  0.65213100  0.08958500  0.82763200  1
  Ni  Ni12  1  0.84786900  0.58958500  0.82763200  1
  Ni  Ni13  1  0.15213100  0.08958500  0.67236800  1
  Ni  Ni14  1  0.65213100  0.41041500  0.32763200  1
  Ni  Ni15  1  0.34786900  0.91041500  0.17236800  1
  Ni  Ni16  1  0.28010100  0.40353600  0.32931900  1
  Ni  Ni17  1  0.71989900  0.90353600  0.17068100  1
  Ni  Ni18  1  0.21989900  0.59646400  0.82931900  1
  Ni  Ni19  1  0.78010100  0.09646400  0.67068100  1
  Ni  Ni20  1  0.71989900  0.59646400  0.67068100  1
  Ni  Ni21  1  0.28010100  0.09646400  0.82931900  1
  Ni  Ni22  1  0.78010100  0.40353600  0.17068100  1
  Ni  Ni23  1  0.21989900  0.90353600  0.32931900  1
  Ni  Ni24  1  0.03420500  0.79920600  0.12993800  1
  Ni  Ni25  1  0.96579500  0.29920600  0.37006200  1
  Ni  Ni26  1  0.46579500  0.20079400  0.62993800  1
  Ni  Ni27  1  0.53420500  0.70079400  0.87006200  1
  Ni  Ni28  1  0.96579500  0.20079400  0.87006200  1
  Ni  Ni29  1  0.03420500  0.70079400  0.62993800  1
  Ni  Ni30  1  0.53420500  0.79920600  0.37006200  1
  Ni  Ni31  1  0.46579500  0.29920600  0.12993800  1
  Cu  Cu32  1  0.46625000  0.44459200  0.38585200  1
  Cu  Cu33  1  0.53375000  0.94459200  0.11414800  1
  Cu  Cu34  1  0.03375000  0.55540800  0.88585200  1
  Cu  Cu35  1  0.96625000  0.05540800  0.61414800  1
  Cu  Cu36  1  0.53375000  0.55540800  0.61414800  1
  Cu  Cu37  1  0.46625000  0.05540800  0.88585200  1
  Cu  Cu38  1  0.96625000  0.44459200  0.11414800  1
  Cu  Cu39  1  0.03375000  0.94459200  0.38585200  1
  Cu  Cu40  1  0.97061200  0.36380000  0.27821500  1
  Cu  Cu41  1  0.02938800  0.86380000  0.22178500  1
  Cu  Cu42  1  0.52938800  0.63620000  0.77821500  1
  Cu  Cu43  1  0.47061200  0.13620000  0.72178500  1
  Cu  Cu44  1  0.02938800  0.63620000  0.72178500  1
  Cu  Cu45  1  0.97061200  0.13620000  0.77821500  1
  Cu  Cu46  1  0.47061200  0.36380000  0.22178500  1
  Cu  Cu47  1  0.52938800  0.86380000  0.27821500  1
  Cu  Cu48  1  0.14982700  0.22050000  0.17558400  1
  Cu  Cu49  1  0.85017300  0.72050000  0.32441600  1
  Cu  Cu50  1  0.35017300  0.77950000  0.67558400  1
  Cu  Cu51  1  0.64982700  0.27950000  0.82441600  1
  Cu  Cu52  1  0.85017300  0.77950000  0.82441600  1
  Cu  Cu53  1  0.14982700  0.27950000  0.67558400  1
  Cu  Cu54  1  0.64982700  0.22050000  0.32441600  1
  Cu  Cu55  1  0.35017300  0.72050000  0.17558400  1
  Cu  Cu56  1  0.13905700  0.40572600  0.40522000  1
  Cu  Cu57  1  0.86094300  0.90572600  0.09478000  1
  Cu  Cu58  1  0.36094300  0.59427400  0.90522000  1
  Cu  Cu59  1  0.63905700  0.09427400  0.59478000  1
  Cu  Cu60  1  0.86094300  0.59427400  0.59478000  1
  Cu  Cu61  1  0.13905700  0.09427400  0.90522000  1
  Cu  Cu62  1  0.63905700  0.40572600  0.09478000  1
  Cu  Cu63  1  0.36094300  0.90572600  0.40522000  1
  Cu  Cu64  1  0.29604700  0.21367700  0.32445100  1
  Cu  Cu65  1  0.70395300  0.71367700  0.17554900  1
  Cu  Cu66  1  0.20395300  0.78632300  0.82445100  1
  Cu  Cu67  1  0.79604700  0.28632300  0.67554900  1
  Cu  Cu68  1  0.70395300  0.78632300  0.67554900  1
  Cu  Cu69  1  0.29604700  0.28632300  0.82445100  1
  Cu  Cu70  1  0.79604700  0.21367700  0.17554900  1
  Cu  Cu71  1  0.20395300  0.71367700  0.32445100  1
  Cu  Cu72  1  0.01751800  0.21459000  0.51825400  1
  Cu  Cu73  1  0.98248200  0.71459000  0.98174600  1
  Cu  Cu74  1  0.48248200  0.78541000  0.01825400  1
  Cu  Cu75  1  0.51751800  0.28541000  0.48174600  1
  Cu  Cu76  1  0.98248200  0.78541000  0.48174600  1
  Cu  Cu77  1  0.01751800  0.28541000  0.01825400  1
  Cu  Cu78  1  0.51751800  0.21459000  0.98174600  1
  Cu  Cu79  1  0.48248200  0.71459000  0.51825400  1
  Cu  Cu80  1  0.79905200  0.41962500  0.40288100  1
  Cu  Cu81  1  0.20094800  0.91962500  0.09711900  1
  Cu  Cu82  1  0.70094800  0.58037500  0.90288100  1
  Cu  Cu83  1  0.29905200  0.08037500  0.59711900  1
  Cu  Cu84  1  0.20094800  0.58037500  0.59711900  1
  Cu  Cu85  1  0.79905200  0.08037500  0.90288100  1
  Cu  Cu86  1  0.29905200  0.41962500  0.09711900  1
  Cu  Cu87  1  0.70094800  0.91962500  0.40288100  1
  C  C88  1  0.97604000  0.19394000  0.04648100  1
  C  C89  1  0.02396000  0.69394000  0.45351900  1
  C  C90  1  0.52396000  0.80606000  0.54648100  1
  C  C91  1  0.47604000  0.30606000  0.95351900  1
  C  C92  1  0.02396000  0.80606000  0.95351900  1
  C  C93  1  0.97604000  0.30606000  0.54648100  1
  C  C94  1  0.47604000  0.19394000  0.45351900  1
  C  C95  1  0.52396000  0.69394000  0.04648100  1
  C  C96  1  0.05897800  0.37008300  0.98471500  1
  C  C97  1  0.94102200  0.87008300  0.51528500  1
  C  C98  1  0.44102200  0.62991700  0.48471500  1
  C  C99  1  0.55897800  0.12991700  0.01528500  1
  C  C100  1  0.94102200  0.62991700  0.01528500  1
  C  C101  1  0.05897800  0.12991700  0.48471500  1
  C  C102  1  0.55897800  0.37008300  0.51528500  1
  C  C103  1  0.44102200  0.87008300  0.98471500  1
