# generated using pymatgen
data_Cu7NiC68
_symmetry_space_group_name_H-M   'P 1'
_cell_length_a   8.65158100
_cell_length_b   8.76392526
_cell_length_c   12.17788560
_cell_angle_alpha   90.18944002
_cell_angle_beta   90.05692464
_cell_angle_gamma   90.04113512
_symmetry_Int_Tables_number   1
_chemical_formula_structural   Cu7NiC68
_chemical_formula_sum   'Cu7 Ni1 C68'
_cell_volume   923.34357644
_cell_formula_units_Z   1
loop_
 _symmetry_equiv_pos_site_id
 _symmetry_equiv_pos_as_xyz
  1  'x, y, z'
loop_
 _atom_site_type_symbol
 _atom_site_label
 _atom_site_symmetry_multiplicity
 _atom_site_fract_x
 _atom_site_fract_y
 _atom_site_fract_z
 _atom_site_occupancy
  C  C0  1  0.21720700  0.72246300  0.18136600  1
  C  C1  1  0.21818300  0.77721400  0.81829200  1
  C  C2  1  0.28230800  0.22277900  0.31959800  1
  C  C3  1  0.28280400  0.27800300  0.68192900  1
  C  C4  1  0.71653100  0.72487700  0.31738300  1
  C  C5  1  0.71524400  0.78188600  0.68123800  1
  C  C6  1  0.78408200  0.22214900  0.18156600  1
  C  C7  1  0.78429600  0.27794600  0.82047200  1
  Ni  Ni8  1  0.75389400  0.46154300  0.61060400  1
  Cu  Cu9  1  0.24788800  0.95970400  0.61358100  1
  Cu  Cu10  1  0.24900400  0.54194000  0.38667300  1
  Cu  Cu11  1  0.25112500  0.04100800  0.11304800  1
  Cu  Cu12  1  0.25122900  0.45866700  0.88725300  1
  Cu  Cu13  1  0.74995500  0.54113400  0.11113300  1
  Cu  Cu14  1  0.74845000  0.96075300  0.88794600  1
  Cu  Cu15  1  0.75052100  0.03732100  0.38690200  1
  C  C16  1  0.03961500  0.24865400  0.49859400  1
  C  C17  1  0.10532600  0.39315400  0.14724300  1
  C  C18  1  0.10588500  0.10657600  0.85269700  1
  C  C19  1  0.39590900  0.60377900  0.64614400  1
  C  C20  1  0.39402100  0.89347200  0.35348700  1
  C  C21  1  0.46085100  0.74980200  0.00032300  1
  C  C22  1  0.53977300  0.25050100  0.00059500  1
  C  C23  1  0.60561400  0.39280400  0.35334600  1
  C  C24  1  0.60457900  0.10892600  0.64473900  1
  C  C25  1  0.89483600  0.60757900  0.85008700  1
  C  C26  1  0.89461100  0.89281600  0.14710300  1
  C  C27  1  0.96084400  0.74797300  0.49927700  1
  C  C28  1  0.05486400  0.63839900  0.43033900  1
  C  C29  1  0.05255400  0.85304500  0.57532800  1
  C  C30  1  0.07335400  0.89497800  0.15627100  1
  C  C31  1  0.07251200  0.60371900  0.84073500  1
  C  C32  1  0.14095300  0.16657400  0.58412800  1
  C  C33  1  0.14507400  0.34022000  0.42198100  1
  C  C34  1  0.15488400  0.43372900  0.03011000  1
  C  C35  1  0.15595600  0.06671800  0.96971900  1
  C  C36  1  0.16217900  0.23249300  0.18072600  1
  C  C37  1  0.16222600  0.26790800  0.81946900  1
  C  C38  1  0.17457800  0.51473600  0.22571100  1
  C  C39  1  0.17473800  0.98476400  0.77403700  1
  C  C40  1  0.32565000  0.01495600  0.27468500  1
  C  C41  1  0.32856600  0.48413800  0.72536300  1
  C  C42  1  0.34704400  0.76688700  0.68063500  1
  C  C43  1  0.33691500  0.73256400  0.31994300  1
  C  C44  1  0.34906700  0.56632700  0.52891900  1
  C  C45  1  0.34273900  0.93470400  0.47068400  1
  C  C46  1  0.35203700  0.83719900  0.07983400  1
  C  C47  1  0.35185700  0.66216700  0.92062900  1
  C  C48  1  0.42732800  0.11147500  0.65714500  1
  C  C49  1  0.42868700  0.39384300  0.34926900  1
  C  C50  1  0.44398500  0.14210500  0.07112900  1
  C  C51  1  0.44400000  0.35829800  0.92917800  1
  C  C52  1  0.55679800  0.64229400  0.07191100  1
  C  C53  1  0.55671000  0.85734200  0.92866700  1
  C  C54  1  0.57907900  0.59458100  0.65408400  1
  C  C55  1  0.57247500  0.89519100  0.34366200  1
  C  C56  1  0.64748600  0.33819200  0.08115700  1
  C  C57  1  0.64833100  0.16427700  0.92010900  1
  C  C58  1  0.65453000  0.06895800  0.52902200  1
  C  C59  1  0.66105200  0.43067300  0.47679100  1
  C  C60  1  0.66537500  0.23394300  0.32257300  1
  C  C61  1  0.66576100  0.27643500  0.67385600  1
  C  C62  1  0.67744600  0.51691200  0.28117900  1
  C  C63  1  0.67700400  0.99338900  0.72520700  1
  C  C64  1  0.82594500  0.01376500  0.22623000  1
  C  C65  1  0.82602000  0.48621100  0.76565300  1
  C  C66  1  0.83762200  0.73139500  0.17956900  1
  C  C67  1  0.83547200  0.76714200  0.81688300  1
  C  C68  1  0.84037500  0.56053200  0.96403400  1
  C  C69  1  0.84421900  0.93288900  0.03014900  1
  C  C70  1  0.84852600  0.65120700  0.57848600  1
  C  C71  1  0.84723800  0.83325100  0.42405000  1
  C  C72  1  0.92699100  0.10510100  0.84375000  1
  C  C73  1  0.92631000  0.39587300  0.15583900  1
  C  C74  1  0.94107400  0.14216400  0.43018100  1
  C  C75  1  0.93182000  0.36091600  0.56837200  1
