# generated using pymatgen
data_Cu16NiC12
_symmetry_space_group_name_H-M   'P 1'
_cell_length_a   9.93543717
_cell_length_b   9.93543717
_cell_length_c   9.93543717
_cell_angle_alpha   60.00000000
_cell_angle_beta   60.00000000
_cell_angle_gamma   60.00000000
_symmetry_Int_Tables_number   1
_chemical_formula_structural   Cu16NiC12
_chemical_formula_sum   'Cu32 Ni2 C24'
_cell_volume   693.49917157
_cell_formula_units_Z   2
loop_
 _symmetry_equiv_pos_site_id
 _symmetry_equiv_pos_as_xyz
  1  'x, y, z'
loop_
 _atom_site_type_symbol
 _atom_site_label
 _atom_site_symmetry_multiplicity
 _atom_site_fract_x
 _atom_site_fract_y
 _atom_site_fract_z
 _atom_site_occupancy
  C  C0  1  0.53082800  0.96917200  0.53082800  1
  C  C1  1  0.96917200  0.96917200  0.53082800  1
  C  C2  1  0.53082800  0.53082800  0.96917200  1
  C  C3  1  0.96917200  0.53082800  0.53082800  1
  C  C4  1  0.71917200  0.28082800  0.28082800  1
  C  C5  1  0.96917200  0.53082800  0.96917200  1
  C  C6  1  0.28082800  0.71917200  0.28082800  1
  C  C7  1  0.71917200  0.71917200  0.28082800  1
  C  C8  1  0.28082800  0.71917200  0.71917200  1
  C  C9  1  0.53082800  0.96917200  0.96917200  1
  C  C10  1  0.28082800  0.28082800  0.71917200  1
  C  C11  1  0.71917200  0.28082800  0.71917200  1
  C  C12  1  0.12500000  0.12500000  0.12500000  1
  C  C13  1  0.12500000  0.62500000  0.12500000  1
  C  C14  1  0.12500000  0.12500000  0.62500000  1
  C  C15  1  0.62500000  0.12500000  0.12500000  1
  C  C16  1  0.33726900  0.33726900  0.33726900  1
  C  C17  1  0.33726900  0.98819400  0.33726900  1
  C  C18  1  0.26180600  0.91273100  0.91273100  1
  C  C19  1  0.91273100  0.91273100  0.26180600  1
  C  C20  1  0.33726900  0.33726900  0.98819400  1
  C  C21  1  0.98819400  0.33726900  0.33726900  1
  C  C22  1  0.91273100  0.26180600  0.91273100  1
  C  C23  1  0.91273100  0.91273100  0.91273100  1
  Ni  Ni24  1  0.75000000  0.75000000  0.75000000  1
  Ni  Ni25  1  0.50000000  0.50000000  0.50000000  1
  Cu  Cu26  1  0.49306600  0.22199000  0.30184000  1
  Cu  Cu27  1  0.94816000  0.02801000  0.26689600  1
  Cu  Cu28  1  0.75693400  0.26689600  0.02801000  1
  Cu  Cu29  1  0.22199000  0.30184000  0.49306600  1
  Cu  Cu30  1  0.22199000  0.98310400  0.30184000  1
  Cu  Cu31  1  0.30184000  0.49306600  0.22199000  1
  Cu  Cu32  1  0.26689600  0.75693400  0.94816000  1
  Cu  Cu33  1  0.30184000  0.98310400  0.49306600  1
  Cu  Cu34  1  0.56168600  0.31494100  0.56168600  1
  Cu  Cu35  1  0.68831400  0.68831400  0.68831400  1
  Cu  Cu36  1  0.98310400  0.30184000  0.22199000  1
  Cu  Cu37  1  0.02801000  0.75693400  0.26689600  1
  Cu  Cu38  1  0.75693400  0.94816000  0.26689600  1
  Cu  Cu39  1  0.98310400  0.22199000  0.49306600  1
  Cu  Cu40  1  0.56168600  0.56168600  0.31494100  1
  Cu  Cu41  1  0.31494100  0.56168600  0.56168600  1
  Cu  Cu42  1  0.93505900  0.68831400  0.68831400  1
  Cu  Cu43  1  0.68831400  0.68831400  0.93505900  1
  Cu  Cu44  1  0.26689600  0.02801000  0.75693400  1
  Cu  Cu45  1  0.49306600  0.30184000  0.98310400  1
  Cu  Cu46  1  0.22199000  0.49306600  0.98310400  1
  Cu  Cu47  1  0.26689600  0.94816000  0.02801000  1
  Cu  Cu48  1  0.56168600  0.56168600  0.56168600  1
  Cu  Cu49  1  0.68831400  0.93505900  0.68831400  1
  Cu  Cu50  1  0.94816000  0.26689600  0.75693400  1
  Cu  Cu51  1  0.98310400  0.49306600  0.30184000  1
  Cu  Cu52  1  0.94816000  0.75693400  0.02801000  1
  Cu  Cu53  1  0.02801000  0.26689600  0.94816000  1
  Cu  Cu54  1  0.02801000  0.94816000  0.75693400  1
  Cu  Cu55  1  0.49306600  0.98310400  0.22199000  1
  Cu  Cu56  1  0.30184000  0.22199000  0.98310400  1
  Cu  Cu57  1  0.75693400  0.02801000  0.94816000  1
