# generated using pymatgen
data_CuNiC3
_symmetry_space_group_name_H-M   'P 1'
_cell_length_a   5.31471800
_cell_length_b   5.38902400
_cell_length_c   7.58912100
_cell_angle_alpha   90.00000000
_cell_angle_beta   90.00000000
_cell_angle_gamma   90.00000000
_symmetry_Int_Tables_number   1
_chemical_formula_structural   CuNiC3
_chemical_formula_sum   'Cu4 Ni4 C12'
_cell_volume   217.36109871
_cell_formula_units_Z   4
loop_
 _symmetry_equiv_pos_site_id
 _symmetry_equiv_pos_as_xyz
  1  'x, y, z'
loop_
 _atom_site_type_symbol
 _atom_site_label
 _atom_site_symmetry_multiplicity
 _atom_site_fract_x
 _atom_site_fract_y
 _atom_site_fract_z
 _atom_site_occupancy
  Ni  Ni0  1  0.53962600  0.99370600  0.75000000  1
  Ni  Ni1  1  0.03962600  0.50629400  0.75000000  1
  Ni  Ni2  1  0.96037400  0.49370600  0.25000000  1
  Ni  Ni3  1  0.46037400  0.00629400  0.25000000  1
  Cu  Cu4  1  0.00000000  0.00000000  0.00000000  1
  Cu  Cu5  1  0.00000000  0.00000000  0.50000000  1
  Cu  Cu6  1  0.50000000  0.50000000  0.00000000  1
  Cu  Cu7  1  0.50000000  0.50000000  0.50000000  1
  C  C8  1  0.03444600  0.90444700  0.25000000  1
  C  C9  1  0.27153400  0.81366000  0.55037800  1
  C  C10  1  0.27153400  0.81366000  0.94962200  1
  C  C11  1  0.77153400  0.68634000  0.94962200  1
  C  C12  1  0.77153400  0.68634000  0.55037800  1
  C  C13  1  0.53444600  0.59555300  0.25000000  1
  C  C14  1  0.46555400  0.40444700  0.75000000  1
  C  C15  1  0.22846600  0.31366000  0.44962200  1
  C  C16  1  0.22846600  0.31366000  0.05037800  1
  C  C17  1  0.72846600  0.18634000  0.05037800  1
  C  C18  1  0.72846600  0.18634000  0.44962200  1
  C  C19  1  0.96555400  0.09555300  0.75000000  1
