# generated using pymatgen
data_Cu6NiC34
_symmetry_space_group_name_H-M   'P 1'
_cell_length_a   14.50087000
_cell_length_b   8.57523700
_cell_length_c   8.61822993
_cell_angle_alpha   83.34792104
_cell_angle_beta   90.00000000
_cell_angle_gamma   90.00000000
_symmetry_Int_Tables_number   1
_chemical_formula_structural   Cu6NiC34
_chemical_formula_sum   'Cu12 Ni2 C68'
_cell_volume   1064.44851546
_cell_formula_units_Z   2
loop_
 _symmetry_equiv_pos_site_id
 _symmetry_equiv_pos_as_xyz
  1  'x, y, z'
loop_
 _atom_site_type_symbol
 _atom_site_label
 _atom_site_symmetry_multiplicity
 _atom_site_fract_x
 _atom_site_fract_y
 _atom_site_fract_z
 _atom_site_occupancy
  C  C0  1  0.09676500  0.05359600  0.17500500  1
  C  C1  1  0.59676500  0.94640400  0.32499500  1
  C  C2  1  0.90323500  0.94640400  0.82499500  1
  C  C3  1  0.40323500  0.05359600  0.67500500  1
  C  C4  1  0.28173400  0.66722200  0.00269500  1
  C  C5  1  0.78173400  0.33277800  0.49730500  1
  C  C6  1  0.71826600  0.33277800  0.99730500  1
  C  C7  1  0.21826600  0.66722200  0.50269500  1
  Ni  Ni8  1  0.50000000  0.50000000  0.50000000  1
  Ni  Ni9  1  0.00000000  0.50000000  0.00000000  1
  Cu  Cu10  1  0.33479000  0.99845800  0.25743500  1
  Cu  Cu11  1  0.83479000  0.00154200  0.24256500  1
  Cu  Cu12  1  0.66521000  0.00154200  0.74256500  1
  Cu  Cu13  1  0.16521000  0.99845800  0.75743500  1
  Cu  Cu14  1  0.32584700  0.32818900  0.30935900  1
  Cu  Cu15  1  0.82584700  0.67181100  0.19064100  1
  Cu  Cu16  1  0.67415300  0.67181100  0.69064100  1
  Cu  Cu17  1  0.17415300  0.32818900  0.80935900  1
  Cu  Cu18  1  0.45005500  0.23361500  0.06675100  1
  Cu  Cu19  1  0.95005500  0.76638500  0.43324900  1
  Cu  Cu20  1  0.54994500  0.76638500  0.93324900  1
  Cu  Cu21  1  0.04994500  0.23361500  0.56675100  1
  C  C22  1  0.07055400  0.65088300  0.21564600  1
  C  C23  1  0.57055400  0.34911700  0.28435400  1
  C  C24  1  0.92944600  0.34911700  0.78435400  1
  C  C25  1  0.42944600  0.65088300  0.71564600  1
  C  C26  1  0.13556200  0.50054700  0.19989300  1
  C  C27  1  0.63556200  0.49945300  0.30010700  1
  C  C28  1  0.86443800  0.49945300  0.80010700  1
  C  C29  1  0.36443800  0.50054700  0.69989300  1
  C  C30  1  0.42270800  0.74028800  0.36315900  1
  C  C31  1  0.92270800  0.25971200  0.13684100  1
  C  C32  1  0.57729200  0.25971200  0.63684100  1
  C  C33  1  0.07729200  0.74028800  0.86315900  1
  C  C34  1  0.48309200  0.66561700  0.23250800  1
  C  C35  1  0.98309200  0.33438300  0.26749200  1
  C  C36  1  0.51690800  0.33438300  0.76749200  1
  C  C37  1  0.01690800  0.66561700  0.73250800  1
  C  C38  1  0.26365800  0.88868300  0.20643000  1
  C  C39  1  0.76365800  0.11131700  0.29357000  1
  C  C40  1  0.73634200  0.11131700  0.79357000  1
  C  C41  1  0.23634200  0.88868300  0.70643000  1
  C  C42  1  0.39933400  0.93735100  0.38796100  1
  C  C43  1  0.89933400  0.06264900  0.11203900  1
  C  C44  1  0.60066600  0.06264900  0.61203900  1
  C  C45  1  0.10066600  0.93735100  0.88796100  1
  C  C46  1  0.27974200  0.15516700  0.29566600  1
  C  C47  1  0.77974200  0.84483300  0.20433400  1
  C  C48  1  0.72025800  0.84483300  0.70433400  1
  C  C49  1  0.22025800  0.15516700  0.79566600  1
  C  C50  1  0.39135400  0.30973400  0.44508000  1
  C  C51  1  0.89135400  0.69026600  0.05492000  1
  C  C52  1  0.60864600  0.69026600  0.55492000  1
  C  C53  1  0.10864600  0.30973400  0.94508000  1
  C  C54  1  0.25058300  0.44780700  0.29661600  1
  C  C55  1  0.75058300  0.55219300  0.20338400  1
  C  C56  1  0.74941700  0.55219300  0.70338400  1
  C  C57  1  0.24941700  0.44780700  0.79661600  1
  C  C58  1  0.44621300  0.27091400  0.89272100  1
  C  C59  1  0.94621300  0.72908600  0.60727900  1
  C  C60  1  0.55378700  0.72908600  0.10727900  1
  C  C61  1  0.05378700  0.27091400  0.39272100  1
  C  C62  1  0.54271200  0.22899900  0.14663500  1
  C  C63  1  0.04271200  0.77100100  0.35336500  1
  C  C64  1  0.45728800  0.77100100  0.85336500  1
  C  C65  1  0.95728800  0.22899900  0.64663500  1
  C  C66  1  0.38235400  0.35506400  0.14284600  1
  C  C67  1  0.88235400  0.64493600  0.35715400  1
  C  C68  1  0.61764600  0.64493600  0.85715400  1
  C  C69  1  0.11764600  0.35506400  0.64284600  1
  C  C70  1  0.39622100  0.06712600  0.10590300  1
  C  C71  1  0.89622100  0.93287400  0.39409700  1
  C  C72  1  0.60377900  0.93287400  0.89409700  1
  C  C73  1  0.10377900  0.06712600  0.60590300  1
  C  C74  1  0.09683600  0.58211100  0.13982300  1
  C  C75  1  0.59683600  0.41788900  0.36017700  1
  C  C76  1  0.90316400  0.41788900  0.86017700  1
  C  C77  1  0.40316400  0.58211100  0.63982300  1
  C  C78  1  0.44046100  0.63830300  0.32579200  1
  C  C79  1  0.94046100  0.36169700  0.17420800  1
  C  C80  1  0.55953900  0.36169700  0.67420800  1
  C  C81  1  0.05953900  0.63830300  0.82579200  1
