# generated using pymatgen
data_Cu7NiC4
_symmetry_space_group_name_H-M   'P 1'
_cell_length_a   6.76096600
_cell_length_b   10.73543340
_cell_length_c   10.51088204
_cell_angle_alpha   118.91279631
_cell_angle_beta   90.00067938
_cell_angle_gamma   89.99996930
_symmetry_Int_Tables_number   1
_chemical_formula_structural   Cu7NiC4
_chemical_formula_sum   'Cu28 Ni4 C16'
_cell_volume   667.80934465
_cell_formula_units_Z   4
loop_
 _symmetry_equiv_pos_site_id
 _symmetry_equiv_pos_as_xyz
  1  'x, y, z'
loop_
 _atom_site_type_symbol
 _atom_site_label
 _atom_site_symmetry_multiplicity
 _atom_site_fract_x
 _atom_site_fract_y
 _atom_site_fract_z
 _atom_site_occupancy
  C  C0  1  0.49969900  0.22773200  0.21730800  1
  C  C1  1  0.49969500  0.72778500  0.21731300  1
  C  C2  1  0.00031400  0.22773500  0.21730200  1
  C  C3  1  0.00031400  0.72776000  0.21731300  1
  C  C4  1  0.50034500  0.77226700  0.78270500  1
  C  C5  1  0.50029500  0.27223900  0.78267900  1
  C  C6  1  0.99967900  0.77228100  0.78272500  1
  C  C7  1  0.99972800  0.27224000  0.78268400  1
  C  C8  1  0.75000300  0.06879500  0.34441600  1
  C  C9  1  0.25002000  0.93113700  0.65554300  1
  C  C10  1  0.74995400  0.56876600  0.34439100  1
  C  C11  1  0.24998400  0.43124100  0.65560500  1
  C  C12  1  0.24997900  0.56620900  0.42311600  1
  C  C13  1  0.25000700  0.06624600  0.42317800  1
  C  C14  1  0.74998100  0.43379100  0.57685600  1
  C  C15  1  0.75001700  0.93374800  0.57684000  1
  Ni  Ni16  1  0.74999100  0.40135800  0.07720100  1
  Ni  Ni17  1  0.75000800  0.90140500  0.07723600  1
  Ni  Ni18  1  0.25000500  0.59865000  0.92278800  1
  Ni  Ni19  1  0.25000900  0.09859100  0.92278600  1
  Cu  Cu20  1  0.25000800  0.18436200  0.05672500  1
  Cu  Cu21  1  0.25000500  0.68440200  0.05672800  1
  Cu  Cu22  1  0.75001000  0.81565600  0.94329500  1
  Cu  Cu23  1  0.75001200  0.31559500  0.94325600  1
  Cu  Cu24  1  0.74997700  0.54076100  0.13356700  1
  Cu  Cu25  1  0.75000700  0.04081200  0.13362800  1
  Cu  Cu26  1  0.24999900  0.45924200  0.86640600  1
  Cu  Cu27  1  0.25001800  0.95920000  0.86642900  1
  Cu  Cu28  1  0.74998900  0.35971500  0.17774800  1
  Cu  Cu29  1  0.75000900  0.85974600  0.17776500  1
  Cu  Cu30  1  0.25000500  0.64029900  0.82224500  1
  Cu  Cu31  1  0.25001000  0.14023200  0.82223200  1
  Cu  Cu32  1  0.74999900  0.27979800  0.41075400  1
  Cu  Cu33  1  0.74999400  0.77978200  0.41074500  1
  Cu  Cu34  1  0.24998400  0.72016400  0.58924400  1
  Cu  Cu35  1  0.25000100  0.22023700  0.58925000  1
  Cu  Cu36  1  0.24997300  0.41966000  0.45005700  1
  Cu  Cu37  1  0.25000800  0.91967700  0.45012800  1
  Cu  Cu38  1  0.74998100  0.58033700  0.54989900  1
  Cu  Cu39  1  0.75001300  0.08032300  0.54991700  1
  Cu  Cu40  1  0.04726000  0.55979100  0.32174200  1
  Cu  Cu41  1  0.04729600  0.05977800  0.32177600  1
  Cu  Cu42  1  0.45268800  0.55979100  0.32173600  1
  Cu  Cu43  1  0.45271600  0.05977500  0.32177400  1
  Cu  Cu44  1  0.54727800  0.44022900  0.67823800  1
  Cu  Cu45  1  0.54730500  0.94021100  0.67824400  1
  Cu  Cu46  1  0.95270600  0.44023700  0.67824100  1
  Cu  Cu47  1  0.95272100  0.94021200  0.67824400  1
