# generated using pymatgen
data_Cu3NiC6
_symmetry_space_group_name_H-M   'P 1'
_cell_length_a   7.46609800
_cell_length_b   9.56186400
_cell_length_c   13.40354600
_cell_angle_alpha   90.00000000
_cell_angle_beta   90.00000000
_cell_angle_gamma   90.00000000
_symmetry_Int_Tables_number   1
_chemical_formula_structural   Cu3NiC6
_chemical_formula_sum   'Cu24 Ni8 C48'
_cell_volume   956.87665168
_cell_formula_units_Z   8
loop_
 _symmetry_equiv_pos_site_id
 _symmetry_equiv_pos_as_xyz
  1  'x, y, z'
loop_
 _atom_site_type_symbol
 _atom_site_label
 _atom_site_symmetry_multiplicity
 _atom_site_fract_x
 _atom_site_fract_y
 _atom_site_fract_z
 _atom_site_occupancy
  C  C0  1  0.61850800  0.35481400  0.50121200  1
  C  C1  1  0.11850800  0.64518600  0.99878800  1
  C  C2  1  0.38149200  0.14518600  0.00121200  1
  C  C3  1  0.88149200  0.85481400  0.49878800  1
  C  C4  1  0.38149200  0.64518600  0.49878800  1
  C  C5  1  0.88149200  0.35481400  0.00121200  1
  C  C6  1  0.61850800  0.85481400  0.99878800  1
  C  C7  1  0.11850800  0.14518600  0.50121200  1
  C  C8  1  0.72507400  0.11014100  0.15144400  1
  C  C9  1  0.22507400  0.88985900  0.34855600  1
  C  C10  1  0.27492600  0.38985900  0.65144400  1
  C  C11  1  0.77492600  0.61014100  0.84855600  1
  C  C12  1  0.27492600  0.88985900  0.84855600  1
  C  C13  1  0.77492600  0.11014100  0.65144400  1
  C  C14  1  0.72507400  0.61014100  0.34855600  1
  C  C15  1  0.22507400  0.38985900  0.15144400  1
  C  C16  1  0.79877700  0.01007200  0.21683300  1
  C  C17  1  0.29877700  0.98992800  0.28316700  1
  C  C18  1  0.20122300  0.48992800  0.71683300  1
  C  C19  1  0.70122300  0.51007200  0.78316700  1
  C  C20  1  0.20122300  0.98992800  0.78316700  1
  C  C21  1  0.70122300  0.01007200  0.71683300  1
  C  C22  1  0.79877700  0.51007200  0.28316700  1
  C  C23  1  0.29877700  0.48992800  0.21683300  1
  C  C24  1  0.63190700  0.20704400  0.21162800  1
  C  C25  1  0.13190700  0.79295600  0.28837200  1
  C  C26  1  0.36809300  0.29295600  0.71162800  1
  C  C27  1  0.86809300  0.70704400  0.78837200  1
  C  C28  1  0.36809300  0.79295600  0.78837200  1
  C  C29  1  0.86809300  0.20704400  0.71162800  1
  C  C30  1  0.63190700  0.70704400  0.28837200  1
  C  C31  1  0.13190700  0.29295600  0.21162800  1
  C  C32  1  0.07152200  0.07689400  0.08888000  1
  C  C33  1  0.57152200  0.92310600  0.41112000  1
  C  C34  1  0.92847800  0.42310600  0.58888000  1
  C  C35  1  0.42847800  0.57689400  0.91112000  1
  C  C36  1  0.92847800  0.92310600  0.91112000  1
  C  C37  1  0.42847800  0.07689400  0.58888000  1
  C  C38  1  0.07152200  0.57689400  0.41112000  1
  C  C39  1  0.57152200  0.42310600  0.08888000  1
  C  C40  1  0.20616000  0.94326800  0.09473800  1
  C  C41  1  0.70616000  0.05673200  0.40526200  1
  C  C42  1  0.79384000  0.55673200  0.59473800  1
  C  C43  1  0.29384000  0.44326800  0.90526200  1
  C  C44  1  0.79384000  0.05673200  0.90526200  1
  C  C45  1  0.29384000  0.94326800  0.59473800  1
  C  C46  1  0.20616000  0.44326800  0.40526200  1
  C  C47  1  0.70616000  0.55673200  0.09473800  1
  Ni  Ni48  1  0.37524100  0.23775000  0.40094900  1
  Ni  Ni49  1  0.87524100  0.76225000  0.09905100  1
  Ni  Ni50  1  0.62475900  0.26225000  0.90094900  1
  Ni  Ni51  1  0.12475900  0.73775000  0.59905100  1
  Ni  Ni52  1  0.62475900  0.76225000  0.59905100  1
  Ni  Ni53  1  0.12475900  0.23775000  0.90094900  1
  Ni  Ni54  1  0.37524100  0.73775000  0.09905100  1
  Ni  Ni55  1  0.87524100  0.26225000  0.40094900  1
  Cu  Cu56  1  0.58443800  0.03643400  0.08564200  1
  Cu  Cu57  1  0.08443800  0.96356600  0.41435800  1
  Cu  Cu58  1  0.41556200  0.46356600  0.58564200  1
  Cu  Cu59  1  0.91556200  0.53643400  0.91435800  1
  Cu  Cu60  1  0.41556200  0.96356600  0.91435800  1
  Cu  Cu61  1  0.91556200  0.03643400  0.58564200  1
  Cu  Cu62  1  0.58443800  0.53643400  0.41435800  1
  Cu  Cu63  1  0.08443800  0.46356600  0.08564200  1
  Cu  Cu64  1  0.19809700  0.04584100  0.09554500  1
  Cu  Cu65  1  0.69809700  0.95415900  0.40445500  1
  Cu  Cu66  1  0.80190300  0.45415900  0.59554500  1
  Cu  Cu67  1  0.30190300  0.54584100  0.90445500  1
  Cu  Cu68  1  0.80190300  0.95415900  0.90445500  1
  Cu  Cu69  1  0.30190300  0.04584100  0.59554500  1
  Cu  Cu70  1  0.19809700  0.54584100  0.40445500  1
  Cu  Cu71  1  0.69809700  0.45415900  0.09554500  1
  Cu  Cu72  1  0.88045100  0.18094800  0.09616100  1
  Cu  Cu73  1  0.38045100  0.81905200  0.40383900  1
  Cu  Cu74  1  0.11954900  0.31905200  0.59616100  1
  Cu  Cu75  1  0.61954900  0.68094800  0.90383900  1
  Cu  Cu76  1  0.11954900  0.81905200  0.90383900  1
  Cu  Cu77  1  0.61954900  0.18094800  0.59616100  1
  Cu  Cu78  1  0.88045100  0.68094800  0.40383900  1
  Cu  Cu79  1  0.38045100  0.31905200  0.09616100  1
