# generated using pymatgen
data_Cu(NiC2)3
_symmetry_space_group_name_H-M   'P 1'
_cell_length_a   8.88723900
_cell_length_b   14.18236200
_cell_length_c   14.64183400
_cell_angle_alpha   90.00000000
_cell_angle_beta   90.00000000
_cell_angle_gamma   90.00000000
_symmetry_Int_Tables_number   1
_chemical_formula_structural   Cu(NiC2)3
_chemical_formula_sum   'Cu16 Ni48 C96'
_cell_volume   1845.48663664
_cell_formula_units_Z   16
loop_
 _symmetry_equiv_pos_site_id
 _symmetry_equiv_pos_as_xyz
  1  'x, y, z'
loop_
 _atom_site_type_symbol
 _atom_site_label
 _atom_site_symmetry_multiplicity
 _atom_site_fract_x
 _atom_site_fract_y
 _atom_site_fract_z
 _atom_site_occupancy
  C  C0  1  0.48573500  0.26838700  0.05303200  1
  C  C1  1  0.01426500  0.76838700  0.94696800  1
  C  C2  1  0.98573500  0.73161300  0.44696800  1
  C  C3  1  0.51426500  0.23161300  0.55303200  1
  C  C4  1  0.51426500  0.73161300  0.94696800  1
  C  C5  1  0.98573500  0.23161300  0.05303200  1
  C  C6  1  0.01426500  0.26838700  0.55303200  1
  C  C7  1  0.48573500  0.76838700  0.44696800  1
  C  C8  1  0.48683700  0.27118900  0.80134800  1
  C  C9  1  0.01316300  0.77118900  0.19865200  1
  C  C10  1  0.98683700  0.72881100  0.69865200  1
  C  C11  1  0.51316300  0.22881100  0.30134800  1
  C  C12  1  0.51316300  0.72881100  0.19865200  1
  C  C13  1  0.98683700  0.22881100  0.80134800  1
  C  C14  1  0.01316300  0.27118900  0.30134800  1
  C  C15  1  0.48683700  0.77118900  0.69865200  1
  Ni  Ni16  1  0.59157200  0.40373800  0.19111900  1
  Ni  Ni17  1  0.90842800  0.90373800  0.80888100  1
  Ni  Ni18  1  0.09157200  0.59626200  0.30888100  1
  Ni  Ni19  1  0.40842800  0.09626200  0.69111900  1
  Ni  Ni20  1  0.40842800  0.59626200  0.80888100  1
  Ni  Ni21  1  0.09157200  0.09626200  0.19111900  1
  Ni  Ni22  1  0.90842800  0.40373800  0.69111900  1
  Ni  Ni23  1  0.59157200  0.90373800  0.30888100  1
  Ni  Ni24  1  0.74018200  0.33354200  0.17965100  1
  Ni  Ni25  1  0.75981800  0.83354200  0.82034900  1
  Ni  Ni26  1  0.24018200  0.66645800  0.32034900  1
  Ni  Ni27  1  0.25981800  0.16645800  0.67965100  1
  Ni  Ni28  1  0.25981800  0.66645800  0.82034900  1
  Ni  Ni29  1  0.24018200  0.16645800  0.17965100  1
  Ni  Ni30  1  0.75981800  0.33354200  0.67965100  1
  Ni  Ni31  1  0.74018200  0.83354200  0.32034900  1
  Ni  Ni32  1  0.41522200  0.10153300  0.16222200  1
  Ni  Ni33  1  0.08477800  0.60153300  0.83777800  1
  Ni  Ni34  1  0.91522200  0.89846700  0.33777800  1
  Ni  Ni35  1  0.58477800  0.39846700  0.66222200  1
  Ni  Ni36  1  0.58477800  0.89846700  0.83777800  1
  Ni  Ni37  1  0.91522200  0.39846700  0.16222200  1
  Ni  Ni38  1  0.08477800  0.10153300  0.66222200  1
  Ni  Ni39  1  0.41522200  0.60153300  0.33777800  1
  Ni  Ni40  1  0.42903800  0.11535300  0.92522100  1
  Ni  Ni41  1  0.07096200  0.61535300  0.07477900  1
  Ni  Ni42  1  0.92903800  0.88464700  0.57477900  1
  Ni  Ni43  1  0.57096200  0.38464700  0.42522100  1
  Ni  Ni44  1  0.57096200  0.88464700  0.07477900  1
  Ni  Ni45  1  0.92903800  0.38464700  0.92522100  1
  Ni  Ni46  1  0.07096200  0.11535300  0.42522100  1
  Ni  Ni47  1  0.42903800  0.61535300  0.57477900  1
  Ni  Ni48  1  0.60403800  0.41032700  0.92785000  1
  Ni  Ni49  1  0.89596200  0.91032700  0.07215000  1
  Ni  Ni50  1  0.10403800  0.58967300  0.57215000  1
  Ni  Ni51  1  0.39596200  0.08967300  0.42785000  1
  Ni  Ni52  1  0.39596200  0.58967300  0.07215000  1
  Ni  Ni53  1  0.10403800  0.08967300  0.92785000  1
  Ni  Ni54  1  0.89596200  0.41032700  0.42785000  1
  Ni  Ni55  1  0.60403800  0.91032700  0.57215000  1
  Ni  Ni56  1  0.75601000  0.33102400  0.92580500  1
  Ni  Ni57  1  0.74399000  0.83102400  0.07419500  1
  Ni  Ni58  1  0.25601000  0.66897600  0.57419500  1
  Ni  Ni59  1  0.24399000  0.16897600  0.42580500  1
  Ni  Ni60  1  0.24399000  0.66897600  0.07419500  1
  Ni  Ni61  1  0.25601000  0.16897600  0.92580500  1
  Ni  Ni62  1  0.74399000  0.33102400  0.42580500  1
  Ni  Ni63  1  0.75601000  0.83102400  0.57419500  1
  Cu  Cu64  1  0.73779800  0.08810800  0.05520200  1
  Cu  Cu65  1  0.76220200  0.58810800  0.94479800  1
  Cu  Cu66  1  0.23779800  0.91189200  0.44479800  1
  Cu  Cu67  1  0.26220200  0.41189200  0.55520200  1
  Cu  Cu68  1  0.26220200  0.91189200  0.94479800  1
  Cu  Cu69  1  0.23779800  0.41189200  0.05520200  1
  Cu  Cu70  1  0.76220200  0.08810800  0.55520200  1
  Cu  Cu71  1  0.73779800  0.58810800  0.44479800  1
  Cu  Cu72  1  0.73049800  0.09052700  0.81021300  1
  Cu  Cu73  1  0.76950200  0.59052700  0.18978700  1
  Cu  Cu74  1  0.23049800  0.90947300  0.68978700  1
  Cu  Cu75  1  0.26950200  0.40947300  0.31021300  1
  Cu  Cu76  1  0.26950200  0.90947300  0.18978700  1
  Cu  Cu77  1  0.23049800  0.40947300  0.81021300  1
  Cu  Cu78  1  0.76950200  0.09052700  0.31021300  1
  Cu  Cu79  1  0.73049800  0.59052700  0.68978700  1
  C  C80  1  0.87224900  0.05857100  0.06290500  1
  C  C81  1  0.62775100  0.55857100  0.93709500  1
  C  C82  1  0.37224900  0.94142900  0.43709500  1
  C  C83  1  0.12775100  0.44142900  0.56290500  1
  C  C84  1  0.12775100  0.94142900  0.93709500  1
  C  C85  1  0.37224900  0.44142900  0.06290500  1
  C  C86  1  0.62775100  0.05857100  0.56290500  1
  C  C87  1  0.87224900  0.55857100  0.43709500  1
  C  C88  1  0.62681700  0.03568900  0.05430500  1
  C  C89  1  0.87318300  0.53568900  0.94569500  1
  C  C90  1  0.12681700  0.96431100  0.44569500  1
  C  C91  1  0.37318300  0.46431100  0.55430500  1
  C  C92  1  0.37318300  0.96431100  0.94569500  1
  C  C93  1  0.12681700  0.46431100  0.05430500  1
  C  C94  1  0.87318300  0.03568900  0.55430500  1
  C  C95  1  0.62681700  0.53568900  0.44569500  1
  C  C96  1  0.72118800  0.17886900  0.04768300  1
  C  C97  1  0.77881200  0.67886900  0.95231700  1
  C  C98  1  0.22118800  0.82113100  0.45231700  1
  C  C99  1  0.27881200  0.32113100  0.54768300  1
  C  C100  1  0.27881200  0.82113100  0.95231700  1
  C  C101  1  0.22118800  0.32113100  0.04768300  1
  C  C102  1  0.77881200  0.17886900  0.54768300  1
  C  C103  1  0.72118800  0.67886900  0.45231700  1
  C  C104  1  0.86233700  0.05611700  0.81367200  1
  C  C105  1  0.63766300  0.55611700  0.18632800  1
  C  C106  1  0.36233700  0.94388300  0.68632800  1
  C  C107  1  0.13766300  0.44388300  0.31367200  1
  C  C108  1  0.13766300  0.94388300  0.18632800  1
  C  C109  1  0.36233700  0.44388300  0.81367200  1
  C  C110  1  0.63766300  0.05611700  0.31367200  1
  C  C111  1  0.86233700  0.55611700  0.68632800  1
  C  C112  1  0.61441300  0.04302400  0.81923800  1
  C  C113  1  0.88558700  0.54302400  0.18076200  1
  C  C114  1  0.11441300  0.95697600  0.68076200  1
  C  C115  1  0.38558700  0.45697600  0.31923800  1
  C  C116  1  0.38558700  0.95697600  0.18076200  1
  C  C117  1  0.11441300  0.45697600  0.81923800  1
  C  C118  1  0.88558700  0.04302400  0.31923800  1
  C  C119  1  0.61441300  0.54302400  0.68076200  1
  C  C120  1  0.72098200  0.18081500  0.79657500  1
  C  C121  1  0.77901800  0.68081500  0.20342500  1
  C  C122  1  0.22098200  0.81918500  0.70342500  1
  C  C123  1  0.27901800  0.31918500  0.29657500  1
  C  C124  1  0.27901800  0.81918500  0.20342500  1
  C  C125  1  0.22098200  0.31918500  0.79657500  1
  C  C126  1  0.77901800  0.18081500  0.29657500  1
  C  C127  1  0.72098200  0.68081500  0.70342500  1
  C  C128  1  0.61559400  0.33652900  0.18487000  1
  C  C129  1  0.88440600  0.83652900  0.81513000  1
  C  C130  1  0.11559400  0.66347100  0.31513000  1
  C  C131  1  0.38440600  0.16347100  0.68487000  1
  C  C132  1  0.38440600  0.66347100  0.81513000  1
  C  C133  1  0.11559400  0.16347100  0.18487000  1
  C  C134  1  0.88440600  0.33652900  0.68487000  1
  C  C135  1  0.61559400  0.83652900  0.31513000  1
  C  C136  1  0.39508000  0.16888200  0.17109900  1
  C  C137  1  0.10492000  0.66888200  0.82890100  1
  C  C138  1  0.89508000  0.83111800  0.32890100  1
  C  C139  1  0.60492000  0.33111800  0.67109900  1
  C  C140  1  0.60492000  0.83111800  0.82890100  1
  C  C141  1  0.89508000  0.33111800  0.17109900  1
  C  C142  1  0.10492000  0.16888200  0.67109900  1
  C  C143  1  0.39508000  0.66888200  0.32890100  1
  C  C144  1  0.38992000  0.17986100  0.92612600  1
  C  C145  1  0.11008000  0.67986100  0.07387400  1
  C  C146  1  0.88992000  0.82013900  0.57387400  1
  C  C147  1  0.61008000  0.32013900  0.42612600  1
  C  C148  1  0.61008000  0.82013900  0.07387400  1
  C  C149  1  0.88992000  0.32013900  0.92612600  1
  C  C150  1  0.11008000  0.17986100  0.42612600  1
  C  C151  1  0.38992000  0.67986100  0.57387400  1
  C  C152  1  0.61610200  0.34165500  0.92587400  1
  C  C153  1  0.88389800  0.84165500  0.07412600  1
  C  C154  1  0.11610200  0.65834500  0.57412600  1
  C  C155  1  0.38389800  0.15834500  0.42587400  1
  C  C156  1  0.38389800  0.65834500  0.07412600  1
  C  C157  1  0.11610200  0.15834500  0.92587400  1
  C  C158  1  0.88389800  0.34165500  0.42587400  1
  C  C159  1  0.61610200  0.84165500  0.57412600  1
