# generated using pymatgen
data_Cu(NiC4)2
_symmetry_space_group_name_H-M   'P 1'
_cell_length_a   7.08386700
_cell_length_b   9.60083500
_cell_length_c   13.73250300
_cell_angle_alpha   90.00000000
_cell_angle_beta   90.00000000
_cell_angle_gamma   90.00000000
_symmetry_Int_Tables_number   1
_chemical_formula_structural   Cu(NiC4)2
_chemical_formula_sum   'Cu4 Ni8 C32'
_cell_volume   933.96178651
_cell_formula_units_Z   4
loop_
 _symmetry_equiv_pos_site_id
 _symmetry_equiv_pos_as_xyz
  1  'x, y, z'
loop_
 _atom_site_type_symbol
 _atom_site_label
 _atom_site_symmetry_multiplicity
 _atom_site_fract_x
 _atom_site_fract_y
 _atom_site_fract_z
 _atom_site_occupancy
  C  C0  1  0.54494800  0.16536200  0.46982300  1
  C  C1  1  0.95505200  0.33463800  0.96982300  1
  C  C2  1  0.45505200  0.66536200  0.53017700  1
  C  C3  1  0.04494800  0.83463800  0.03017700  1
  C  C4  1  0.45505200  0.83463800  0.53017700  1
  C  C5  1  0.04494800  0.66536200  0.03017700  1
  C  C6  1  0.54494800  0.33463800  0.46982300  1
  C  C7  1  0.95505200  0.16536200  0.96982300  1
  C  C8  1  0.30092500  0.25000000  0.61266400  1
  C  C9  1  0.19907500  0.25000000  0.11266400  1
  C  C10  1  0.69907500  0.75000000  0.38733600  1
  C  C11  1  0.80092500  0.75000000  0.88733600  1
  Ni  Ni12  1  0.34045900  0.00260700  0.85640600  1
  Ni  Ni13  1  0.15954100  0.49739300  0.35640600  1
  Ni  Ni14  1  0.65954100  0.50260700  0.14359400  1
  Ni  Ni15  1  0.84045900  0.99739300  0.64359400  1
  Ni  Ni16  1  0.65954100  0.99739300  0.14359400  1
  Ni  Ni17  1  0.84045900  0.50260700  0.64359400  1
  Ni  Ni18  1  0.34045900  0.49739300  0.85640600  1
  Ni  Ni19  1  0.15954100  0.00260700  0.35640600  1
  C  C20  1  0.04849200  0.25000000  0.50722000  1
  C  C21  1  0.45150800  0.25000000  0.00722000  1
  C  C22  1  0.95150800  0.75000000  0.49278000  1
  C  C23  1  0.54849200  0.75000000  0.99278000  1
  C  C24  1  0.10750000  0.25000000  0.74291200  1
  C  C25  1  0.39250000  0.25000000  0.24291200  1
  C  C26  1  0.89250000  0.75000000  0.25708800  1
  C  C27  1  0.60750000  0.75000000  0.75708800  1
  C  C28  1  0.56623400  0.25000000  0.70907100  1
  C  C29  1  0.93376600  0.25000000  0.20907100  1
  C  C30  1  0.43376600  0.75000000  0.29092900  1
  C  C31  1  0.06623400  0.75000000  0.79092900  1
  C  C32  1  0.30798400  0.00712200  0.60829400  1
  C  C33  1  0.19201600  0.49287800  0.10829400  1
  C  C34  1  0.69201600  0.50712200  0.39170600  1
  C  C35  1  0.80798400  0.99287800  0.89170600  1
  C  C36  1  0.69201600  0.99287800  0.39170600  1
  C  C37  1  0.80798400  0.50712200  0.89170600  1
  C  C38  1  0.30798400  0.49287800  0.60829400  1
  C  C39  1  0.19201600  0.00712200  0.10829400  1
  Cu  Cu40  1  0.47042400  0.25000000  0.48319900  1
  Cu  Cu41  1  0.02957600  0.25000000  0.98319900  1
  Cu  Cu42  1  0.52957600  0.75000000  0.51680100  1
  Cu  Cu43  1  0.97042400  0.75000000  0.01680100  1
