# generated using pymatgen
data_Cu(NiC3)2
_symmetry_space_group_name_H-M   'P 1'
_cell_length_a   13.45041895
_cell_length_b   13.45041895
_cell_length_c   13.45041895
_cell_angle_alpha   109.47122063
_cell_angle_beta   109.47122063
_cell_angle_gamma   109.47122063
_symmetry_Int_Tables_number   1
_chemical_formula_structural   Cu(NiC3)2
_chemical_formula_sum   'Cu4 Ni8 C24'
_cell_volume   1873.20601863
_cell_formula_units_Z   4
loop_
 _symmetry_equiv_pos_site_id
 _symmetry_equiv_pos_as_xyz
  1  'x, y, z'
loop_
 _atom_site_type_symbol
 _atom_site_label
 _atom_site_symmetry_multiplicity
 _atom_site_fract_x
 _atom_site_fract_y
 _atom_site_fract_z
 _atom_site_occupancy
  Ni  Ni0  1  0.81069800  0.50000000  0.00000000  1
  Ni  Ni1  1  0.50000000  0.00000000  0.18930200  1
  Ni  Ni2  1  0.31069800  0.31069800  0.31069800  1
  Ni  Ni3  1  0.50000000  0.00000000  0.81069800  1
  Ni  Ni4  1  0.18930200  0.50000000  0.00000000  1
  Ni  Ni5  1  0.00000000  0.18930200  0.50000000  1
  Ni  Ni6  1  0.68930200  0.68930200  0.68930200  1
  Ni  Ni7  1  0.00000000  0.81069800  0.50000000  1
  Cu  Cu8  1  0.00000000  0.00000000  0.00000000  1
  Cu  Cu9  1  0.50000000  0.50000000  0.00000000  1
  Cu  Cu10  1  0.50000000  0.00000000  0.50000000  1
  Cu  Cu11  1  0.00000000  0.50000000  0.50000000  1
  C  C12  1  0.79894100  0.21646600  0.27950900  1
  C  C13  1  0.58247400  0.29894100  0.01943200  1
  C  C14  1  0.28353400  0.08247400  0.06304300  1
  C  C15  1  0.51943200  0.22049100  0.43695700  1
  C  C16  1  0.78353400  0.72049100  0.20105900  1
  C  C17  1  0.98056800  0.41752600  0.70105900  1
  C  C18  1  0.08247400  0.06304300  0.28353400  1
  C  C19  1  0.72049100  0.20105900  0.78353400  1
  C  C20  1  0.77950900  0.56304300  0.48056800  1
  C  C21  1  0.43695700  0.51943200  0.22049100  1
  C  C22  1  0.06304300  0.28353400  0.08247400  1
  C  C23  1  0.29894100  0.01943200  0.58247400  1
  C  C24  1  0.70105900  0.98056800  0.41752600  1
  C  C25  1  0.56304300  0.48056800  0.77950900  1
  C  C26  1  0.93695700  0.71646600  0.91752600  1
  C  C27  1  0.27950900  0.79894100  0.21646600  1
  C  C28  1  0.22049100  0.43695700  0.51943200  1
  C  C29  1  0.91752600  0.93695700  0.71646600  1
  C  C30  1  0.01943200  0.58247400  0.29894100  1
  C  C31  1  0.21646600  0.27950900  0.79894100  1
  C  C32  1  0.48056800  0.77950900  0.56304300  1
  C  C33  1  0.71646600  0.91752600  0.93695700  1
  C  C34  1  0.41752600  0.70105900  0.98056800  1
  C  C35  1  0.20105900  0.78353400  0.72049100  1
