# generated using pymatgen
data_Cu3NiC6
_symmetry_space_group_name_H-M   'P 1'
_cell_length_a   7.34602800
_cell_length_b   9.54351000
_cell_length_c   13.28189900
_cell_angle_alpha   90.00000000
_cell_angle_beta   90.00000000
_cell_angle_gamma   90.00000000
_symmetry_Int_Tables_number   1
_chemical_formula_structural   Cu3NiC6
_chemical_formula_sum   'Cu24 Ni8 C48'
_cell_volume   931.15265447
_cell_formula_units_Z   8
loop_
 _symmetry_equiv_pos_site_id
 _symmetry_equiv_pos_as_xyz
  1  'x, y, z'
loop_
 _atom_site_type_symbol
 _atom_site_label
 _atom_site_symmetry_multiplicity
 _atom_site_fract_x
 _atom_site_fract_y
 _atom_site_fract_z
 _atom_site_occupancy
  C  C0  1  0.62109600  0.35647100  0.50361700  1
  C  C1  1  0.12109600  0.64352900  0.99638300  1
  C  C2  1  0.37890400  0.14352900  0.00361700  1
  C  C3  1  0.87890400  0.85647100  0.49638300  1
  C  C4  1  0.37890400  0.64352900  0.49638300  1
  C  C5  1  0.87890400  0.35647100  0.00361700  1
  C  C6  1  0.62109600  0.85647100  0.99638300  1
  C  C7  1  0.12109600  0.14352900  0.50361700  1
  C  C8  1  0.72224100  0.11025000  0.15266300  1
  C  C9  1  0.22224100  0.88975000  0.34733700  1
  C  C10  1  0.27775900  0.38975000  0.65266300  1
  C  C11  1  0.77775900  0.61025000  0.84733700  1
  C  C12  1  0.27775900  0.88975000  0.84733700  1
  C  C13  1  0.77775900  0.11025000  0.65266300  1
  C  C14  1  0.72224100  0.61025000  0.34733700  1
  C  C15  1  0.22224100  0.38975000  0.15266300  1
  C  C16  1  0.79853500  0.00951300  0.21752400  1
  C  C17  1  0.29853500  0.99048700  0.28247600  1
  C  C18  1  0.20146500  0.49048700  0.71752400  1
  C  C19  1  0.70146500  0.50951300  0.78247600  1
  C  C20  1  0.20146500  0.99048700  0.78247600  1
  C  C21  1  0.70146500  0.00951300  0.71752400  1
  C  C22  1  0.79853500  0.50951300  0.28247600  1
  C  C23  1  0.29853500  0.49048700  0.21752400  1
  C  C24  1  0.62717700  0.20581700  0.21441700  1
  C  C25  1  0.12717700  0.79418300  0.28558300  1
  C  C26  1  0.37282300  0.29418300  0.71441700  1
  C  C27  1  0.87282300  0.70581700  0.78558300  1
  C  C28  1  0.37282300  0.79418300  0.78558300  1
  C  C29  1  0.87282300  0.20581700  0.71441700  1
  C  C30  1  0.62717700  0.70581700  0.28558300  1
  C  C31  1  0.12717700  0.29418300  0.21441700  1
  C  C32  1  0.06896100  0.07558800  0.09328300  1
  C  C33  1  0.56896100  0.92441200  0.40671700  1
  C  C34  1  0.93103900  0.42441200  0.59328300  1
  C  C35  1  0.43103900  0.57558800  0.90671700  1
  C  C36  1  0.93103900  0.92441200  0.90671700  1
  C  C37  1  0.43103900  0.07558800  0.59328300  1
  C  C38  1  0.06896100  0.57558800  0.40671700  1
  C  C39  1  0.56896100  0.42441200  0.09328300  1
  C  C40  1  0.20192800  0.94042800  0.08929800  1
  C  C41  1  0.70192800  0.05957200  0.41070200  1
  C  C42  1  0.79807200  0.55957200  0.58929800  1
  C  C43  1  0.29807200  0.44042800  0.91070200  1
  C  C44  1  0.79807200  0.05957200  0.91070200  1
  C  C45  1  0.29807200  0.94042800  0.58929800  1
  C  C46  1  0.20192800  0.44042800  0.41070200  1
  C  C47  1  0.70192800  0.55957200  0.08929800  1
  Ni  Ni48  1  0.37387700  0.23658100  0.40142700  1
  Ni  Ni49  1  0.87387700  0.76341900  0.09857300  1
  Ni  Ni50  1  0.62612300  0.26341900  0.90142700  1
  Ni  Ni51  1  0.12612300  0.73658100  0.59857300  1
  Ni  Ni52  1  0.62612300  0.76341900  0.59857300  1
  Ni  Ni53  1  0.12612300  0.23658100  0.90142700  1
  Ni  Ni54  1  0.37387700  0.73658100  0.09857300  1
  Ni  Ni55  1  0.87387700  0.26341900  0.40142700  1
  Cu  Cu56  1  0.57988500  0.03610900  0.08574400  1
  Cu  Cu57  1  0.07988500  0.96389100  0.41425600  1
  Cu  Cu58  1  0.42011500  0.46389100  0.58574400  1
  Cu  Cu59  1  0.92011500  0.53610900  0.91425600  1
  Cu  Cu60  1  0.42011500  0.96389100  0.91425600  1
  Cu  Cu61  1  0.92011500  0.03610900  0.58574400  1
  Cu  Cu62  1  0.57988500  0.53610900  0.41425600  1
  Cu  Cu63  1  0.07988500  0.46389100  0.08574400  1
  Cu  Cu64  1  0.19724800  0.04241500  0.09858000  1
  Cu  Cu65  1  0.69724800  0.95758500  0.40142000  1
  Cu  Cu66  1  0.80275200  0.45758500  0.59858000  1
  Cu  Cu67  1  0.30275200  0.54241500  0.90142000  1
  Cu  Cu68  1  0.80275200  0.95758500  0.90142000  1
  Cu  Cu69  1  0.30275200  0.04241500  0.59858000  1
  Cu  Cu70  1  0.19724800  0.54241500  0.40142000  1
  Cu  Cu71  1  0.69724800  0.45758500  0.09858000  1
  Cu  Cu72  1  0.87856300  0.18219700  0.09629800  1
  Cu  Cu73  1  0.37856300  0.81780300  0.40370200  1
  Cu  Cu74  1  0.12143700  0.31780300  0.59629800  1
  Cu  Cu75  1  0.62143700  0.68219700  0.90370200  1
  Cu  Cu76  1  0.12143700  0.81780300  0.90370200  1
  Cu  Cu77  1  0.62143700  0.18219700  0.59629800  1
  Cu  Cu78  1  0.87856300  0.68219700  0.40370200  1
  Cu  Cu79  1  0.37856300  0.31780300  0.09629800  1
