# generated using pymatgen
data_Cu12Ni3C17
_symmetry_space_group_name_H-M   'P 1'
_cell_length_a   10.84156800
_cell_length_b   7.87113900
_cell_length_c   18.24841231
_cell_angle_alpha   88.50311806
_cell_angle_beta   90.00000000
_cell_angle_gamma   90.00000000
_symmetry_Int_Tables_number   1
_chemical_formula_structural   Cu12Ni3C17
_chemical_formula_sum   'Cu48 Ni12 C68'
_cell_volume   1556.70577204
_cell_formula_units_Z   4
loop_
 _symmetry_equiv_pos_site_id
 _symmetry_equiv_pos_as_xyz
  1  'x, y, z'
loop_
 _atom_site_type_symbol
 _atom_site_label
 _atom_site_symmetry_multiplicity
 _atom_site_fract_x
 _atom_site_fract_y
 _atom_site_fract_z
 _atom_site_occupancy
  C  C0  1  0.18719200  0.75937100  0.94756500  1
  C  C1  1  0.68719200  0.24062900  0.55243500  1
  C  C2  1  0.81280800  0.24062900  0.05243500  1
  C  C3  1  0.31280800  0.75937100  0.44756500  1
  C  C4  1  0.40712800  0.72562600  0.83003800  1
  C  C5  1  0.90712800  0.27437400  0.66996200  1
  C  C6  1  0.59287200  0.27437400  0.16996200  1
  C  C7  1  0.09287200  0.72562600  0.33003800  1
  C  C8  1  0.30834200  0.65355200  0.71388200  1
  C  C9  1  0.80834200  0.34644800  0.78611800  1
  C  C10  1  0.69165800  0.34644800  0.28611800  1
  C  C11  1  0.19165800  0.65355200  0.21388200  1
  C  C12  1  0.24800200  0.28429900  0.61635300  1
  C  C13  1  0.74800200  0.71570100  0.88364700  1
  C  C14  1  0.75199800  0.71570100  0.38364700  1
  C  C15  1  0.25199800  0.28429900  0.11635300  1
  C  C16  1  0.40720600  0.24590800  0.60698000  1
  C  C17  1  0.90720600  0.75409200  0.89302000  1
  C  C18  1  0.59279400  0.75409200  0.39302000  1
  C  C19  1  0.09279400  0.24590800  0.10698000  1
  C  C20  1  0.20548300  0.01845700  0.76759400  1
  C  C21  1  0.70548300  0.98154300  0.73240600  1
  C  C22  1  0.79451700  0.98154300  0.23240600  1
  C  C23  1  0.29451700  0.01845700  0.26759400  1
  C  C24  1  0.60066200  0.91110600  0.67173000  1
  C  C25  1  0.10066200  0.08889400  0.82827000  1
  C  C26  1  0.39933800  0.08889400  0.32827000  1
  C  C27  1  0.89933800  0.91110600  0.17173000  1
  C  C28  1  0.33983200  0.42499300  0.56124500  1
  C  C29  1  0.83983200  0.57500700  0.93875500  1
  C  C30  1  0.66016800  0.57500700  0.43875500  1
  C  C31  1  0.16016800  0.42499300  0.06124500  1
  C  C32  1  0.60873800  0.95372200  0.50050500  1
  C  C33  1  0.10873800  0.04627800  0.99949500  1
  C  C34  1  0.39126200  0.04627800  0.49949500  1
  C  C35  1  0.89126200  0.95372200  0.00050500  1
  C  C36  1  0.77254100  0.56136200  0.64340000  1
  C  C37  1  0.27254100  0.43863800  0.85660000  1
  C  C38  1  0.22745900  0.43863800  0.35660000  1
  C  C39  1  0.72745900  0.56136200  0.14340000  1
  C  C40  1  0.12489300  0.19722700  0.74682900  1
  C  C41  1  0.62489300  0.80277300  0.75317100  1
  C  C42  1  0.87510700  0.80277300  0.25317100  1
  C  C43  1  0.37510700  0.19722700  0.24682900  1
  C  C44  1  0.10002400  0.79808900  0.61651800  1
  C  C45  1  0.60002400  0.20191100  0.88348200  1
  C  C46  1  0.89997600  0.20191100  0.38348200  1
  C  C47  1  0.39997600  0.79808900  0.11651800  1
  C  C48  1  0.14595700  0.68241200  0.81327100  1
  C  C49  1  0.64595700  0.31758800  0.68672900  1
  C  C50  1  0.85404300  0.31758800  0.18672900  1
  C  C51  1  0.35404300  0.68241200  0.31327100  1
  C  C52  1  0.87140000  0.61834500  0.69727000  1
  C  C53  1  0.37140000  0.38165500  0.80273000  1
  C  C54  1  0.12860000  0.38165500  0.30273000  1
  C  C55  1  0.62860000  0.61834500  0.19727000  1
  C  C56  1  0.41405200  0.28682300  0.93259300  1
  C  C57  1  0.91405200  0.71317700  0.56740700  1
  C  C58  1  0.58594800  0.71317700  0.06740700  1
  C  C59  1  0.08594800  0.28682300  0.43259300  1
  C  C60  1  0.39919600  0.12662500  0.98508300  1
  C  C61  1  0.89919600  0.87337500  0.51491700  1
  C  C62  1  0.60080400  0.87337500  0.01491700  1
  C  C63  1  0.10080400  0.12662500  0.48508300  1
  C  C64  1  0.56353800  0.27100600  0.03041600  1
  C  C65  1  0.06353800  0.72899400  0.46958400  1
  C  C66  1  0.43646200  0.72899400  0.96958400  1
  C  C67  1  0.93646200  0.27100600  0.53041600  1
  Ni  Ni68  1  0.33040500  0.31446000  0.59314600  1
  Ni  Ni69  1  0.83040500  0.68554000  0.90685400  1
  Ni  Ni70  1  0.66959500  0.68554000  0.40685400  1
  Ni  Ni71  1  0.16959500  0.31446000  0.09314600  1
  Ni  Ni72  1  0.62535700  0.91677600  0.72546900  1
  Ni  Ni73  1  0.12535700  0.08322400  0.77453100  1
  Ni  Ni74  1  0.37464300  0.08322400  0.27453100  1
  Ni  Ni75  1  0.87464300  0.91677600  0.22546900  1
  Ni  Ni76  1  0.15688800  0.75676200  0.65998500  1
  Ni  Ni77  1  0.65688800  0.24323800  0.84001500  1
  Ni  Ni78  1  0.84311200  0.24323800  0.34001500  1
  Ni  Ni79  1  0.34311200  0.75676200  0.15998500  1
  Cu  Cu80  1  0.06834900  0.88925900  0.92308800  1
  Cu  Cu81  1  0.56834900  0.11074100  0.57691200  1
  Cu  Cu82  1  0.93165100  0.11074100  0.07691200  1
  Cu  Cu83  1  0.43165100  0.88925900  0.42308800  1
  Cu  Cu84  1  0.20968500  0.66311700  0.84987000  1
  Cu  Cu85  1  0.70968500  0.33688300  0.65013000  1
  Cu  Cu86  1  0.79031500  0.33688300  0.15013000  1
  Cu  Cu87  1  0.29031500  0.66311700  0.34987000  1
  Cu  Cu88  1  0.17269300  0.03249200  0.03913100  1
  Cu  Cu89  1  0.67269300  0.96750800  0.46086900  1
  Cu  Cu90  1  0.82730700  0.96750800  0.96086900  1
  Cu  Cu91  1  0.32730700  0.03249200  0.53913100  1
  Cu  Cu92  1  0.26725300  0.94208800  0.00325700  1
  Cu  Cu93  1  0.76725300  0.05791200  0.49674300  1
  Cu  Cu94  1  0.73274700  0.05791200  0.99674300  1
  Cu  Cu95  1  0.23274700  0.94208800  0.50325700  1
  Cu  Cu96  1  0.37564900  0.60792100  0.74496600  1
  Cu  Cu97  1  0.87564900  0.39207900  0.75503400  1
  Cu  Cu98  1  0.62435100  0.39207900  0.25503400  1
  Cu  Cu99  1  0.12435100  0.60792100  0.24496600  1
  Cu  Cu100  1  0.33918000  0.35474900  0.85181000  1
  Cu  Cu101  1  0.83918000  0.64525100  0.64819000  1
  Cu  Cu102  1  0.66082000  0.64525100  0.14819000  1
  Cu  Cu103  1  0.16082000  0.35474900  0.35181000  1
  Cu  Cu104  1  0.40602900  0.93771300  0.77083500  1
  Cu  Cu105  1  0.90602900  0.06228700  0.72916500  1
  Cu  Cu106  1  0.59397100  0.06228700  0.22916500  1
  Cu  Cu107  1  0.09397100  0.93771300  0.27083500  1
  Cu  Cu108  1  0.39080300  0.96589600  0.84424600  1
  Cu  Cu109  1  0.89080300  0.03410400  0.65575400  1
  Cu  Cu110  1  0.60919700  0.03410400  0.15575400  1
  Cu  Cu111  1  0.10919700  0.96589600  0.34424600  1
  Cu  Cu112  1  0.13556000  0.61421800  0.00611400  1
  Cu  Cu113  1  0.63556000  0.38578200  0.49388600  1
  Cu  Cu114  1  0.86444000  0.38578200  0.99388600  1
  Cu  Cu115  1  0.36444000  0.61421800  0.50611400  1
  Cu  Cu116  1  0.55211000  0.68070100  0.84293800  1
  Cu  Cu117  1  0.05211000  0.31929900  0.65706200  1
  Cu  Cu118  1  0.44789000  0.31929900  0.15706200  1
  Cu  Cu119  1  0.94789000  0.68070100  0.34293800  1
  Cu  Cu120  1  0.45446300  0.22209200  0.97335400  1
  Cu  Cu121  1  0.95446300  0.77790800  0.52664600  1
  Cu  Cu122  1  0.54553700  0.77790800  0.02664600  1
  Cu  Cu123  1  0.04553700  0.22209200  0.47335400  1
  Cu  Cu124  1  0.36765900  0.70298500  0.93438700  1
  Cu  Cu125  1  0.86765900  0.29701500  0.56561300  1
  Cu  Cu126  1  0.63234100  0.29701500  0.06561300  1
  Cu  Cu127  1  0.13234100  0.70298500  0.43438700  1
