# generated using pymatgen
data_Cu10NiC16
_symmetry_space_group_name_H-M   'P 1'
_cell_length_a   9.70639787
_cell_length_b   9.70639787
_cell_length_c   9.70639845
_cell_angle_alpha   34.26748009
_cell_angle_beta   34.26748009
_cell_angle_gamma   34.26747930
_symmetry_Int_Tables_number   1
_chemical_formula_structural   Cu10NiC16
_chemical_formula_sum   'Cu10 Ni1 C16'
_cell_volume   258.54381907
_cell_formula_units_Z   1
loop_
 _symmetry_equiv_pos_site_id
 _symmetry_equiv_pos_as_xyz
  1  'x, y, z'
loop_
 _atom_site_type_symbol
 _atom_site_label
 _atom_site_symmetry_multiplicity
 _atom_site_fract_x
 _atom_site_fract_y
 _atom_site_fract_z
 _atom_site_occupancy
  Ni  Ni0  1  0.80998100  0.80998100  0.80998100  1
  Cu  Cu1  1  0.30979200  0.30979200  0.30979200  1
  Cu  Cu2  1  0.24340000  0.75950600  0.75950600  1
  Cu  Cu3  1  0.18925600  0.18925600  0.18925600  1
  Cu  Cu4  1  0.75950600  0.24340000  0.75950600  1
  Cu  Cu5  1  0.24558900  0.24558900  0.74929200  1
  Cu  Cu6  1  0.75950600  0.75950600  0.24340000  1
  Cu  Cu7  1  0.24558900  0.74929200  0.24558900  1
  Cu  Cu8  1  0.74929200  0.24558900  0.24558900  1
  Cu  Cu9  1  0.49778400  0.49778400  0.49778400  1
  Cu  Cu10  1  0.69177700  0.69177700  0.69177700  1
  C  C11  1  0.38834100  0.38834100  0.85080300  1
  C  C12  1  0.38834100  0.85080300  0.38834100  1
  C  C13  1  0.12049300  0.12049300  0.61834000  1
  C  C14  1  0.12049300  0.61834000  0.12049300  1
  C  C15  1  0.61834000  0.12049300  0.12049300  1
  C  C16  1  0.37541400  0.37541400  0.37541400  1
  C  C17  1  0.16253200  0.60138300  0.60138300  1
  C  C18  1  0.88270700  0.88270700  0.88270700  1
  C  C19  1  0.62298200  0.62298200  0.62298200  1
  C  C20  1  0.85080300  0.38834100  0.38834100  1
  C  C21  1  0.37784400  0.88227500  0.88227500  1
  C  C22  1  0.12262900  0.12262900  0.12262900  1
  C  C23  1  0.88227500  0.88227500  0.37784400  1
  C  C24  1  0.88227500  0.37784400  0.88227500  1
  C  C25  1  0.60138300  0.16253200  0.60138300  1
  C  C26  1  0.60138300  0.60138300  0.16253200  1
