# generated using pymatgen
data_Cu2NiC33
_symmetry_space_group_name_H-M   'P 1'
_cell_length_a   8.59385935
_cell_length_b   8.59385935
_cell_length_c   8.59385860
_cell_angle_alpha   61.29454617
_cell_angle_beta   61.29454617
_cell_angle_gamma   61.29454664
_symmetry_Int_Tables_number   1
_chemical_formula_structural   Cu2NiC33
_chemical_formula_sum   'Cu2 Ni1 C33'
_cell_volume   461.85708724
_cell_formula_units_Z   1
loop_
 _symmetry_equiv_pos_site_id
 _symmetry_equiv_pos_as_xyz
  1  'x, y, z'
loop_
 _atom_site_type_symbol
 _atom_site_label
 _atom_site_symmetry_multiplicity
 _atom_site_fract_x
 _atom_site_fract_y
 _atom_site_fract_z
 _atom_site_occupancy
  C  C0  1  0.14026500  0.14026500  0.14026500  1
  C  C1  1  0.35982600  0.35982600  0.35982600  1
  C  C2  1  0.64174000  0.64174000  0.64174000  1
  Ni  Ni3  1  0.85973100  0.85973100  0.85973100  1
  Cu  Cu4  1  0.00515000  0.00515000  0.00515000  1
  Cu  Cu5  1  0.49826100  0.49826100  0.49826100  1
  C  C6  1  0.45488200  0.74878700  0.04233700  1
  C  C7  1  0.74878700  0.04233700  0.45488200  1
  C  C8  1  0.95959200  0.53498500  0.25591100  1
  C  C9  1  0.25591100  0.95959200  0.53498500  1
  C  C10  1  0.53498500  0.25591100  0.95959200  1
  C  C11  1  0.04233700  0.45488200  0.74878700  1
  C  C12  1  0.49576000  0.31636400  0.11970300  1
  C  C13  1  0.11970300  0.49576000  0.31636400  1
  C  C14  1  0.26488600  0.91074100  0.05711500  1
  C  C15  1  0.31636400  0.11970300  0.49576000  1
  C  C16  1  0.61350300  0.81287500  0.00499500  1
  C  C17  1  0.44089700  0.58891300  0.23376400  1
  C  C18  1  0.91074100  0.05711500  0.26488600  1
  C  C19  1  0.58891300  0.23376400  0.44089700  1
  C  C20  1  0.00006200  0.37785300  0.18961900  1
  C  C21  1  0.23376400  0.44089700  0.58891300  1
  C  C22  1  0.94438200  0.72931900  0.09437500  1
  C  C23  1  0.18961900  0.00006200  0.37785300  1
  C  C24  1  0.81287500  0.00499500  0.61350300  1
  C  C25  1  0.05711500  0.26488600  0.91074100  1
  C  C26  1  0.76688200  0.55314700  0.41460100  1
  C  C27  1  0.00499500  0.61350300  0.81287500  1
  C  C28  1  0.41460100  0.76688200  0.55314700  1
  C  C29  1  0.09437500  0.94438200  0.72931900  1
  C  C30  1  0.55314700  0.41460100  0.76688200  1
  C  C31  1  0.37785300  0.18961900  0.00006200  1
  C  C32  1  0.68865800  0.87990100  0.50021900  1
  C  C33  1  0.72931900  0.09437500  0.94438200  1
  C  C34  1  0.87990100  0.50021900  0.68865800  1
  C  C35  1  0.50021900  0.68865800  0.87990100  1
