# generated using pymatgen
data_Cu(NiC2)2
_symmetry_space_group_name_H-M   'P 1'
_cell_length_a   5.35613700
_cell_length_b   5.63707400
_cell_length_c   10.07127862
_cell_angle_alpha   105.81951251
_cell_angle_beta   85.88191179
_cell_angle_gamma   115.99099197
_symmetry_Int_Tables_number   1
_chemical_formula_structural   Cu(NiC2)2
_chemical_formula_sum   'Cu4 Ni8 C16'
_cell_volume   262.57586632
_cell_formula_units_Z   4
loop_
 _symmetry_equiv_pos_site_id
 _symmetry_equiv_pos_as_xyz
  1  'x, y, z'
loop_
 _atom_site_type_symbol
 _atom_site_label
 _atom_site_symmetry_multiplicity
 _atom_site_fract_x
 _atom_site_fract_y
 _atom_site_fract_z
 _atom_site_occupancy
  C  C0  1  0.05710700  0.19014800  0.77304700  1
  C  C1  1  0.47374500  0.12405800  0.25404500  1
  C  C2  1  0.54228000  0.44102100  0.61567900  1
  C  C3  1  0.96602700  0.54251100  0.88494300  1
  C  C4  1  0.04843500  0.22519800  0.55776900  1
  C  C5  1  0.51709300  0.24208600  0.03791300  1
  C  C6  1  0.95633000  0.32834900  0.32322900  1
  C  C7  1  0.48421100  0.82189400  0.93942300  1
  C  C8  1  0.98034300  0.75251900  0.47293300  1
  C  C9  1  0.98184500  0.39773400  0.10737400  1
  C  C10  1  0.49503600  0.58664800  0.38358000  1
  C  C11  1  0.46748100  0.81508000  0.72098400  1
  C  C12  1  0.98769400  0.84792000  0.24881000  1
  C  C13  1  0.50324700  0.68758300  0.16327500  1
  C  C14  1  0.00249300  0.91713900  0.04287200  1
  C  C15  1  0.51108500  0.01462100  0.49164300  1
  Ni  Ni16  1  0.26165800  0.57326900  0.60237800  1
  Ni  Ni17  1  0.28024800  0.83887100  0.19774000  1
  Ni  Ni18  1  0.17146300  0.83527500  0.97102700  1
  Ni  Ni19  1  0.66748700  0.88490900  0.43462900  1
  Ni  Ni20  1  0.69571600  0.52271600  0.10774500  1
  Ni  Ni21  1  0.34236100  0.15289000  0.53735200  1
  Ni  Ni22  1  0.82040500  0.10215600  0.06221100  1
  Ni  Ni23  1  0.77879300  0.44846300  0.39197700  1
  Cu  Cu24  1  0.85459900  0.87993100  0.72121700  1
  Cu  Cu25  1  0.29688500  0.50108400  0.88943300  1
  Cu  Cu26  1  0.69714600  0.15947500  0.78654400  1
  Cu  Cu27  1  0.15879000  0.16645700  0.28022500  1
