# generated using pymatgen
data_Cu6NiC79
_symmetry_space_group_name_H-M   'P 1'
_cell_length_a   12.89555338
_cell_length_b   12.89555338
_cell_length_c   12.89555381
_cell_angle_alpha   81.14966669
_cell_angle_beta   81.14966669
_cell_angle_gamma   81.14966505
_symmetry_Int_Tables_number   1
_chemical_formula_structural   Cu6NiC79
_chemical_formula_sum   'Cu12 Ni2 C158'
_cell_volume   2075.01229435
_cell_formula_units_Z   2
loop_
 _symmetry_equiv_pos_site_id
 _symmetry_equiv_pos_as_xyz
  1  'x, y, z'
loop_
 _atom_site_type_symbol
 _atom_site_label
 _atom_site_symmetry_multiplicity
 _atom_site_fract_x
 _atom_site_fract_y
 _atom_site_fract_z
 _atom_site_occupancy
  C  C0  1  0.69816800  0.92145800  0.92145800  1
  C  C1  1  0.92145800  0.69816800  0.92145800  1
  C  C2  1  0.92145800  0.92145800  0.69816800  1
  C  C3  1  0.30183200  0.07854200  0.07854200  1
  C  C4  1  0.07854200  0.30183200  0.07854200  1
  C  C5  1  0.07854200  0.07854200  0.30183200  1
  C  C6  1  0.51878300  0.95012600  0.74250800  1
  C  C7  1  0.74250800  0.51878300  0.95012600  1
  C  C8  1  0.95012600  0.74250800  0.51878300  1
  C  C9  1  0.74250800  0.95012600  0.51878300  1
  C  C10  1  0.51878300  0.74250800  0.95012600  1
  C  C11  1  0.95012600  0.51878300  0.74250800  1
  C  C12  1  0.48121700  0.04987400  0.25749200  1
  C  C13  1  0.25749200  0.48121700  0.04987400  1
  C  C14  1  0.04987400  0.25749200  0.48121700  1
  C  C15  1  0.25749200  0.04987400  0.48121700  1
  C  C16  1  0.48121700  0.25749200  0.04987400  1
  C  C17  1  0.04987400  0.48121700  0.25749200  1
  C  C18  1  0.54794500  0.75471200  0.54794500  1
  C  C19  1  0.54794500  0.54794500  0.75471200  1
  C  C20  1  0.75471200  0.54794500  0.54794500  1
  C  C21  1  0.45205500  0.24528800  0.45205500  1
  C  C22  1  0.45205500  0.45205500  0.24528800  1
  C  C23  1  0.24528800  0.45205500  0.45205500  1
  Ni  Ni24  1  0.73456500  0.73456500  0.73456500  1
  Ni  Ni25  1  0.26543500  0.26543500  0.26543500  1
  C  C26  1  0.29088700  0.19210800  0.66867400  1
  C  C27  1  0.66867400  0.29088700  0.19210800  1
  C  C28  1  0.19210800  0.66867400  0.29088700  1
  C  C29  1  0.66867400  0.19210800  0.29088700  1
  C  C30  1  0.29088700  0.66867400  0.19210800  1
  C  C31  1  0.19210800  0.29088700  0.66867400  1
  C  C32  1  0.70911300  0.80789200  0.33132600  1
  C  C33  1  0.33132600  0.70911300  0.80789200  1
  C  C34  1  0.80789200  0.33132600  0.70911300  1
  C  C35  1  0.33132600  0.80789200  0.70911300  1
  C  C36  1  0.70911300  0.33132600  0.80789200  1
  C  C37  1  0.80789200  0.70911300  0.33132600  1
  C  C38  1  0.12751100  0.12751100  0.74043100  1
  C  C39  1  0.74043100  0.12751100  0.12751100  1
  C  C40  1  0.12751100  0.74043100  0.12751100  1
  C  C41  1  0.87248900  0.87248900  0.25956900  1
  C  C42  1  0.25956900  0.87248900  0.87248900  1
  C  C43  1  0.87248900  0.25956900  0.87248900  1
  C  C44  1  0.21626000  0.10898700  0.83883600  1
  C  C45  1  0.83883600  0.21626000  0.10898700  1
  C  C46  1  0.10898700  0.83883600  0.21626000  1
  C  C47  1  0.83883600  0.10898700  0.21626000  1
  C  C48  1  0.21626000  0.83883600  0.10898700  1
  C  C49  1  0.10898700  0.21626000  0.83883600  1
  C  C50  1  0.78374000  0.89101300  0.16116400  1
  C  C51  1  0.16116400  0.78374000  0.89101300  1
  C  C52  1  0.89101300  0.16116400  0.78374000  1
  C  C53  1  0.16116400  0.89101300  0.78374000  1
  C  C54  1  0.78374000  0.16116400  0.89101300  1
  C  C55  1  0.89101300  0.78374000  0.16116400  1
  C  C56  1  0.34600700  0.34600700  0.71484700  1
  C  C57  1  0.71484700  0.34600700  0.34600700  1
  C  C58  1  0.34600700  0.71484700  0.34600700  1
  C  C59  1  0.65399300  0.65399300  0.28515300  1
  C  C60  1  0.28515300  0.65399300  0.65399300  1
  C  C61  1  0.65399300  0.28515300  0.65399300  1
  C  C62  1  0.24021000  0.34738900  0.82347600  1
  C  C63  1  0.82347600  0.24021000  0.34738900  1
  C  C64  1  0.34738900  0.82347600  0.24021000  1
  C  C65  1  0.82347600  0.34738900  0.24021000  1
  C  C66  1  0.24021000  0.82347600  0.34738900  1
  C  C67  1  0.34738900  0.24021000  0.82347600  1
  C  C68  1  0.75979000  0.65261100  0.17652400  1
  C  C69  1  0.17652400  0.75979000  0.65261100  1
  C  C70  1  0.65261100  0.17652400  0.75979000  1
  C  C71  1  0.17652400  0.65261100  0.75979000  1
  C  C72  1  0.75979000  0.17652400  0.65261100  1
  C  C73  1  0.65261100  0.75979000  0.17652400  1
  Cu  Cu74  1  0.16722300  0.16722300  0.78939300  1
  Cu  Cu75  1  0.78939300  0.16722300  0.16722300  1
  Cu  Cu76  1  0.16722300  0.78939300  0.16722300  1
  Cu  Cu77  1  0.83277700  0.83277700  0.21060700  1
  Cu  Cu78  1  0.21060700  0.83277700  0.83277700  1
  Cu  Cu79  1  0.83277700  0.21060700  0.83277700  1
  Cu  Cu80  1  0.29725900  0.29725900  0.77407900  1
  Cu  Cu81  1  0.77407900  0.29725900  0.29725900  1
  Cu  Cu82  1  0.29725900  0.77407900  0.29725900  1
  Cu  Cu83  1  0.70274100  0.70274100  0.22592100  1
  Cu  Cu84  1  0.22592100  0.70274100  0.70274100  1
  Cu  Cu85  1  0.70274100  0.22592100  0.70274100  1
  C  C86  1  0.23754400  0.23754400  0.71764100  1
  C  C87  1  0.71764100  0.23754400  0.23754400  1
  C  C88  1  0.23754400  0.71764100  0.23754400  1
  C  C89  1  0.76245600  0.76245600  0.28235900  1
  C  C90  1  0.28235900  0.76245600  0.76245600  1
  C  C91  1  0.76245600  0.28235900  0.76245600  1
  C  C92  1  0.71295500  0.00652200  0.00652200  1
  C  C93  1  0.00652200  0.71295500  0.00652200  1
  C  C94  1  0.00652200  0.00652200  0.71295500  1
  C  C95  1  0.28704500  0.99347800  0.99347800  1
  C  C96  1  0.99347800  0.28704500  0.99347800  1
  C  C97  1  0.99347800  0.99347800  0.28704500  1
  C  C98  1  0.80216900  0.80216900  0.95819600  1
  C  C99  1  0.95819600  0.80216900  0.80216900  1
  C  C100  1  0.80216900  0.95819600  0.80216900  1
  C  C101  1  0.19783100  0.19783100  0.04180400  1
  C  C102  1  0.04180400  0.19783100  0.19783100  1
  C  C103  1  0.19783100  0.04180400  0.19783100  1
  C  C104  1  0.58837600  0.00239800  0.84284200  1
  C  C105  1  0.84284200  0.58837600  0.00239800  1
  C  C106  1  0.00239800  0.84284200  0.58837600  1
  C  C107  1  0.84284200  0.00239800  0.58837600  1
  C  C108  1  0.58837600  0.84284200  0.00239800  1
  C  C109  1  0.00239800  0.58837600  0.84284200  1
  C  C110  1  0.41162400  0.99760200  0.15715800  1
  C  C111  1  0.15715800  0.41162400  0.99760200  1
  C  C112  1  0.99760200  0.15715800  0.41162400  1
  C  C113  1  0.15715800  0.99760200  0.41162400  1
  C  C114  1  0.41162400  0.15715800  0.99760200  1
  C  C115  1  0.99760200  0.41162400  0.15715800  1
  C  C116  1  0.63211900  0.98433400  0.63211900  1
  C  C117  1  0.63211900  0.63211900  0.98433400  1
  C  C118  1  0.98433400  0.63211900  0.63211900  1
  C  C119  1  0.36788100  0.01566600  0.36788100  1
  C  C120  1  0.36788100  0.36788100  0.01566600  1
  C  C121  1  0.01566600  0.36788100  0.36788100  1
  C  C122  1  0.45133800  0.86232900  0.86232900  1
  C  C123  1  0.86232900  0.45133800  0.86232900  1
  C  C124  1  0.86232900  0.86232900  0.45133800  1
  C  C125  1  0.54866200  0.13767100  0.13767100  1
  C  C126  1  0.13767100  0.54866200  0.13767100  1
  C  C127  1  0.13767100  0.13767100  0.54866200  1
  C  C128  1  0.41828600  0.05151400  0.72081700  1
  C  C129  1  0.72081700  0.41828600  0.05151400  1
  C  C130  1  0.05151400  0.72081700  0.41828600  1
  C  C131  1  0.72081700  0.05151400  0.41828600  1
  C  C132  1  0.41828600  0.72081700  0.05151400  1
  C  C133  1  0.05151400  0.41828600  0.72081700  1
  C  C134  1  0.58171400  0.94848600  0.27918300  1
  C  C135  1  0.27918300  0.58171400  0.94848600  1
  C  C136  1  0.94848600  0.27918300  0.58171400  1
  C  C137  1  0.27918300  0.94848600  0.58171400  1
  C  C138  1  0.58171400  0.27918300  0.94848600  1
  C  C139  1  0.94848600  0.58171400  0.27918300  1
  C  C140  1  0.49538000  0.84931600  0.65310800  1
  C  C141  1  0.65310800  0.49538000  0.84931600  1
  C  C142  1  0.84931600  0.65310800  0.49538000  1
  C  C143  1  0.65310800  0.84931600  0.49538000  1
  C  C144  1  0.49538000  0.65310800  0.84931600  1
  C  C145  1  0.84931600  0.49538000  0.65310800  1
  C  C146  1  0.50462000  0.15068400  0.34689200  1
  C  C147  1  0.34689200  0.50462000  0.15068400  1
  C  C148  1  0.15068400  0.34689200  0.50462000  1
  C  C149  1  0.34689200  0.15068400  0.50462000  1
  C  C150  1  0.50462000  0.34689200  0.15068400  1
  C  C151  1  0.15068400  0.50462000  0.34689200  1
  C  C152  1  0.64305900  0.64305900  0.48302400  1
  C  C153  1  0.48302400  0.64305900  0.64305900  1
  C  C154  1  0.64305900  0.48302400  0.64305900  1
  C  C155  1  0.35694100  0.35694100  0.51697600  1
  C  C156  1  0.51697600  0.35694100  0.35694100  1
  C  C157  1  0.35694100  0.51697600  0.35694100  1
  C  C158  1  0.45902900  0.78967900  0.45902900  1
  C  C159  1  0.45902900  0.45902900  0.78967900  1
  C  C160  1  0.78967900  0.45902900  0.45902900  1
  C  C161  1  0.54097100  0.21032100  0.54097100  1
  C  C162  1  0.54097100  0.54097100  0.21032100  1
  C  C163  1  0.21032100  0.54097100  0.54097100  1
  C  C164  1  0.65418400  0.80498200  0.80498200  1
  C  C165  1  0.80498200  0.65418400  0.80498200  1
  C  C166  1  0.80498200  0.80498200  0.65418400  1
  C  C167  1  0.34581600  0.19501800  0.19501800  1
  C  C168  1  0.19501800  0.34581600  0.19501800  1
  C  C169  1  0.19501800  0.19501800  0.34581600  1
  C  C170  1  0.67396800  0.67396800  0.67396800  1
  C  C171  1  0.32603200  0.32603200  0.32603200  1
