# generated using pymatgen
data_Cu(NiC2)2
_symmetry_space_group_name_H-M   'P 1'
_cell_length_a   2.95547600
_cell_length_b   9.80408700
_cell_length_c   12.61596900
_cell_angle_alpha   90.00000000
_cell_angle_beta   90.00000000
_cell_angle_gamma   90.00000000
_symmetry_Int_Tables_number   1
_chemical_formula_structural   Cu(NiC2)2
_chemical_formula_sum   'Cu4 Ni8 C16'
_cell_volume   365.55708592
_cell_formula_units_Z   4
loop_
 _symmetry_equiv_pos_site_id
 _symmetry_equiv_pos_as_xyz
  1  'x, y, z'
loop_
 _atom_site_type_symbol
 _atom_site_label
 _atom_site_symmetry_multiplicity
 _atom_site_fract_x
 _atom_site_fract_y
 _atom_site_fract_z
 _atom_site_occupancy
  Ni  Ni0  1  0.75000000  0.12217100  0.28626200  1
  Ni  Ni1  1  0.75000000  0.10859600  0.87090000  1
  Ni  Ni2  1  0.25000000  0.39140400  0.37090000  1
  Ni  Ni3  1  0.25000000  0.37782900  0.78626200  1
  Ni  Ni4  1  0.75000000  0.62217100  0.21373800  1
  Ni  Ni5  1  0.75000000  0.60859600  0.62910000  1
  Ni  Ni6  1  0.25000000  0.89140400  0.12910000  1
  Ni  Ni7  1  0.25000000  0.87782900  0.71373800  1
  Cu  Cu8  1  0.75000000  0.15437500  0.56156800  1
  Cu  Cu9  1  0.25000000  0.34562500  0.06156800  1
  Cu  Cu10  1  0.75000000  0.65437500  0.93843200  1
  Cu  Cu11  1  0.25000000  0.84562500  0.43843200  1
  C  C12  1  0.75000000  0.00969100  0.16591700  1
  C  C13  1  0.75000000  0.96147500  0.62962200  1
  C  C14  1  0.25000000  0.25144300  0.26036400  1
  C  C15  1  0.75000000  0.31458100  0.45598200  1
  C  C16  1  0.25000000  0.18541900  0.95598200  1
  C  C17  1  0.75000000  0.24855700  0.76036400  1
  C  C18  1  0.25000000  0.53852500  0.12962200  1
  C  C19  1  0.25000000  0.49030900  0.66591700  1
  C  C20  1  0.75000000  0.50969100  0.33408300  1
  C  C21  1  0.75000000  0.46147500  0.87037800  1
  C  C22  1  0.25000000  0.75144300  0.23963600  1
  C  C23  1  0.75000000  0.81458100  0.04401800  1
  C  C24  1  0.25000000  0.68541900  0.54401800  1
  C  C25  1  0.75000000  0.74855700  0.73963600  1
  C  C26  1  0.25000000  0.03852500  0.37037800  1
  C  C27  1  0.25000000  0.99030900  0.83408300  1
