# generated using pymatgen
data_CuNiC29
_symmetry_space_group_name_H-M   'P 1'
_cell_length_a   12.67095300
_cell_length_b   6.63860700
_cell_length_c   13.60216762
_cell_angle_alpha   80.04285344
_cell_angle_beta   90.00000000
_cell_angle_gamma   90.00000000
_symmetry_Int_Tables_number   1
_chemical_formula_structural   CuNiC29
_chemical_formula_sum   'Cu4 Ni4 C116'
_cell_volume   1126.94564840
_cell_formula_units_Z   4
loop_
 _symmetry_equiv_pos_site_id
 _symmetry_equiv_pos_as_xyz
  1  'x, y, z'
loop_
 _atom_site_type_symbol
 _atom_site_label
 _atom_site_symmetry_multiplicity
 _atom_site_fract_x
 _atom_site_fract_y
 _atom_site_fract_z
 _atom_site_occupancy
  Ni  Ni0  1  0.99545400  0.88092700  0.82382100  1
  Ni  Ni1  1  0.49545400  0.11907300  0.67617900  1
  Ni  Ni2  1  0.00454600  0.11907300  0.17617900  1
  Ni  Ni3  1  0.50454600  0.88092700  0.32382100  1
  Cu  Cu4  1  0.08719900  0.64972500  0.59360100  1
  Cu  Cu5  1  0.58719900  0.35027500  0.90639900  1
  Cu  Cu6  1  0.91280100  0.35027500  0.40639900  1
  Cu  Cu7  1  0.41280100  0.64972500  0.09360100  1
  C  C8  1  0.74276800  0.66392800  0.44931300  1
  C  C9  1  0.24276800  0.33607200  0.05068700  1
  C  C10  1  0.25723200  0.33607200  0.55068700  1
  C  C11  1  0.75723200  0.66392800  0.94931300  1
  C  C12  1  0.85731500  0.50040700  0.60239100  1
  C  C13  1  0.35731500  0.49959300  0.89760900  1
  C  C14  1  0.14268500  0.49959300  0.39760900  1
  C  C15  1  0.64268500  0.50040700  0.10239100  1
  C  C16  1  0.84949900  0.88011400  0.54502800  1
  C  C17  1  0.34949900  0.11988600  0.95497200  1
  C  C18  1  0.15050100  0.11988600  0.45497200  1
  C  C19  1  0.65050100  0.88011400  0.04502800  1
  C  C20  1  0.93933300  0.14752600  0.63296900  1
  C  C21  1  0.43933300  0.85247400  0.86703100  1
  C  C22  1  0.06066700  0.85247400  0.36703100  1
  C  C23  1  0.56066700  0.14752600  0.13296900  1
  C  C24  1  0.80905400  0.24921400  0.75304200  1
  C  C25  1  0.30905400  0.75078600  0.74695800  1
  C  C26  1  0.19094600  0.75078600  0.24695800  1
  C  C27  1  0.69094600  0.24921400  0.25304200  1
  C  C28  1  0.75217600  0.65313800  0.29710700  1
  C  C29  1  0.25217600  0.34686200  0.20289300  1
  C  C30  1  0.24782400  0.34686200  0.70289300  1
  C  C31  1  0.74782400  0.65313800  0.79710700  1
  C  C32  1  0.60210900  0.52021700  0.43295600  1
  C  C33  1  0.10210900  0.47978300  0.06704400  1
  C  C34  1  0.39789100  0.47978300  0.56704400  1
  C  C35  1  0.89789100  0.52021700  0.93295600  1
  C  C36  1  0.75467900  0.07180600  0.88075200  1
  C  C37  1  0.25467900  0.92819400  0.61924800  1
  C  C38  1  0.24532100  0.92819400  0.11924800  1
  C  C39  1  0.74532100  0.07180600  0.38075200  1
  C  C40  1  0.09847900  0.12753400  0.65991200  1
  C  C41  1  0.59847900  0.87246600  0.84008800  1
  C  C42  1  0.90152100  0.87246600  0.34008800  1
  C  C43  1  0.40152100  0.12753400  0.15991200  1
  C  C44  1  0.14802800  0.54793800  0.79412200  1
  C  C45  1  0.64802800  0.45206200  0.70587800  1
  C  C46  1  0.85197200  0.45206200  0.20587800  1
  C  C47  1  0.35197200  0.54793800  0.29412200  1
  C  C48  1  0.03553000  0.44498200  0.80896900  1
  C  C49  1  0.53553000  0.55501800  0.69103100  1
  C  C50  1  0.96447000  0.55501800  0.19103100  1
  C  C51  1  0.46447000  0.44498200  0.30896900  1
  C  C52  1  0.94238900  0.19856700  0.95162100  1
  C  C53  1  0.44238900  0.80143300  0.54837900  1
  C  C54  1  0.05761100  0.80143300  0.04837900  1
  C  C55  1  0.55761100  0.19856700  0.45162100  1
  C  C56  1  0.06022900  0.24968300  0.95581500  1
  C  C57  1  0.56022900  0.75031700  0.54418500  1
  C  C58  1  0.93977100  0.75031700  0.04418500  1
  C  C59  1  0.43977100  0.24968300  0.45581500  1
  C  C60  1  0.17580800  0.95148800  0.94942400  1
  C  C61  1  0.67580800  0.04851200  0.55057600  1
  C  C62  1  0.82419200  0.04851200  0.05057600  1
  C  C63  1  0.32419200  0.95148800  0.44942400  1
  C  C64  1  0.19555000  0.71688300  0.94736500  1
  C  C65  1  0.69555000  0.28311700  0.55263500  1
  C  C66  1  0.80445000  0.28311700  0.05263500  1
  C  C67  1  0.30445000  0.71688300  0.44736500  1
  C  C68  1  0.79940300  0.67004300  0.35223100  1
  C  C69  1  0.29940300  0.32995700  0.14776900  1
  C  C70  1  0.20059700  0.32995700  0.64776900  1
  C  C71  1  0.70059700  0.67004300  0.85223100  1
  C  C72  1  0.62650500  0.65727400  0.43729900  1
  C  C73  1  0.12650500  0.34272600  0.06270100  1
  C  C74  1  0.37349500  0.34272600  0.56270100  1
  C  C75  1  0.87349500  0.65727400  0.93729900  1
  C  C76  1  0.76258300  0.85991100  0.48514700  1
  C  C77  1  0.26258300  0.14008900  0.01485300  1
  C  C78  1  0.23741700  0.14008900  0.51485300  1
  C  C79  1  0.73741700  0.85991100  0.98514700  1
  C  C80  1  0.78561700  0.48758900  0.51804600  1
  C  C81  1  0.28561700  0.51241100  0.98195400  1
  C  C82  1  0.21438300  0.51241100  0.48195400  1
  C  C83  1  0.71438300  0.48758900  0.01804600  1
  C  C84  1  0.89929800  0.71108900  0.59731500  1
  C  C85  1  0.39929800  0.28891100  0.90268500  1
  C  C86  1  0.10070200  0.28891100  0.40268500  1
  C  C87  1  0.60070200  0.71108900  0.09731500  1
  C  C88  1  0.95169800  0.36984900  0.59974200  1
  C  C89  1  0.45169800  0.63015100  0.90025800  1
  C  C90  1  0.04830200  0.63015100  0.40025800  1
  C  C91  1  0.54830200  0.36984900  0.09974200  1
  C  C92  1  0.79732900  0.44262000  0.69827600  1
  C  C93  1  0.29732900  0.55738000  0.80172400  1
  C  C94  1  0.20267100  0.55738000  0.30172400  1
  C  C95  1  0.70267100  0.44262000  0.19827600  1
  C  C96  1  0.88081500  0.07435600  0.55016700  1
  C  C97  1  0.38081500  0.92564400  0.94983300  1
  C  C98  1  0.11918500  0.92564400  0.44983300  1
  C  C99  1  0.61918500  0.07435600  0.05016700  1
  C  C100  1  0.87308000  0.10353400  0.72610300  1
  C  C101  1  0.37308000  0.89646600  0.77389700  1
  C  C102  1  0.12692000  0.89646600  0.27389700  1
  C  C103  1  0.62692000  0.10353400  0.22610300  1
  C  C104  1  0.74889800  0.21033800  0.84056400  1
  C  C105  1  0.24889800  0.78966200  0.65943600  1
  C  C106  1  0.25110200  0.78966200  0.15943600  1
  C  C107  1  0.75110200  0.21033800  0.34056400  1
  C  C108  1  0.03893200  0.03515700  0.65271700  1
  C  C109  1  0.53893200  0.96484300  0.84728300  1
  C  C110  1  0.96106800  0.96484300  0.34728300  1
  C  C111  1  0.46106800  0.03515700  0.15271700  1
  C  C112  1  0.07228000  0.57025100  0.77640900  1
  C  C113  1  0.57228000  0.42974900  0.72359100  1
  C  C114  1  0.92772000  0.42974900  0.22359100  1
  C  C115  1  0.42772000  0.57025100  0.27640900  1
  C  C116  1  0.00586900  0.21860000  0.90786700  1
  C  C117  1  0.50586900  0.78140000  0.59213300  1
  C  C118  1  0.99413100  0.78140000  0.09213300  1
  C  C119  1  0.49413100  0.21860000  0.40786700  1
  C  C120  1  0.14012500  0.82610100  0.93797700  1
  C  C121  1  0.64012500  0.17389900  0.56202300  1
  C  C122  1  0.85987500  0.17389900  0.06202300  1
  C  C123  1  0.35987500  0.82610100  0.43797700  1
