# generated using pymatgen
data_CuNiC16
_symmetry_space_group_name_H-M   'P 1'
_cell_length_a   5.95645700
_cell_length_b   9.85938100
_cell_length_c   14.54896480
_cell_angle_alpha   89.87649213
_cell_angle_beta   90.00000000
_cell_angle_gamma   90.00000000
_symmetry_Int_Tables_number   1
_chemical_formula_structural   CuNiC16
_chemical_formula_sum   'Cu4 Ni4 C64'
_cell_volume   854.41476492
_cell_formula_units_Z   4
loop_
 _symmetry_equiv_pos_site_id
 _symmetry_equiv_pos_as_xyz
  1  'x, y, z'
loop_
 _atom_site_type_symbol
 _atom_site_label
 _atom_site_symmetry_multiplicity
 _atom_site_fract_x
 _atom_site_fract_y
 _atom_site_fract_z
 _atom_site_occupancy
  Ni  Ni0  1  0.50000000  0.78257600  0.14741300  1
  Ni  Ni1  1  0.50000000  0.78426100  0.48063800  1
  Ni  Ni2  1  0.00000000  0.71625300  0.31396900  1
  Ni  Ni3  1  0.00000000  0.71542800  0.64653900  1
  Cu  Cu4  1  0.50000000  0.77698700  0.82069300  1
  Cu  Cu5  1  0.00000000  0.72562300  0.98778100  1
  Cu  Cu6  1  0.50000000  0.27146300  0.00968400  1
  Cu  Cu7  1  0.50000000  0.27301100  0.34542200  1
  C  C8  1  0.50000000  0.27706900  0.68076100  1
  C  C9  1  0.00000000  0.22084200  0.51765300  1
  C  C10  1  0.00000000  0.22762400  0.17991200  1
  C  C11  1  0.00000000  0.22653700  0.84285500  1
  C  C12  1  0.00000000  0.90169500  0.47253600  1
  C  C13  1  0.00000000  0.90378400  0.13967900  1
  C  C14  1  0.00000000  0.90204800  0.80552100  1
  C  C15  1  0.50000000  0.59924900  0.97346000  1
  C  C16  1  0.50000000  0.59965000  0.30647000  1
  C  C17  1  0.50000000  0.59795200  0.63926600  1
  C  C18  1  0.00000000  0.39932300  0.02791700  1
  C  C19  1  0.00000000  0.40123500  0.36285200  1
  C  C20  1  0.00000000  0.40242400  0.69413700  1
  C  C21  1  0.50000000  0.09667000  0.19329700  1
  C  C22  1  0.50000000  0.09756400  0.52876000  1
  C  C23  1  0.50000000  0.09825100  0.86036100  1
  C  C24  1  0.50000000  0.94433200  0.21747900  1
  C  C25  1  0.50000000  0.94602900  0.55240800  1
  C  C26  1  0.50000000  0.94774700  0.88457000  1
  C  C27  1  0.00000000  0.88064700  0.24352800  1
  C  C28  1  0.00000000  0.87989900  0.57725100  1
  C  C29  1  0.00000000  0.88257800  0.91009400  1
  C  C30  1  0.20163100  0.82878400  0.42461200  1
  C  C31  1  0.79836900  0.82878400  0.42461200  1
  C  C32  1  0.19934400  0.82862700  0.09032800  1
  C  C33  1  0.80065600  0.82862700  0.09032800  1
  C  C34  1  0.20406300  0.83040000  0.75892600  1
  C  C35  1  0.79593700  0.83040000  0.75892600  1
  C  C36  1  0.70143500  0.67371100  0.92534700  1
  C  C37  1  0.29856500  0.67371100  0.92534700  1
  C  C38  1  0.70173300  0.67199700  0.25779700  1
  C  C39  1  0.29826700  0.67199700  0.25779700  1
  C  C40  1  0.70143800  0.67014900  0.59088600  1
  C  C41  1  0.29856200  0.67014900  0.59088600  1
  C  C42  1  0.50000000  0.61780000  0.74321000  1
  C  C43  1  0.50000000  0.62007000  0.07820900  1
  C  C44  1  0.50000000  0.62104200  0.41094600  1
  C  C45  1  0.00000000  0.55101200  0.04922400  1
  C  C46  1  0.00000000  0.55348600  0.38493900  1
  C  C47  1  0.00000000  0.55416900  0.71849900  1
  C  C48  1  0.50000000  0.44874800  0.95230000  1
  C  C49  1  0.50000000  0.44813000  0.28563400  1
  C  C50  1  0.50000000  0.44421300  0.61644600  1
  C  C51  1  0.00000000  0.38221700  0.25707400  1
  C  C52  1  0.00000000  0.38591400  0.58945800  1
  C  C53  1  0.00000000  0.37785200  0.92333100  1
  C  C54  1  0.20305500  0.32603400  0.07591500  1
  C  C55  1  0.79694500  0.32603400  0.07591500  1
  C  C56  1  0.20192600  0.32949100  0.74307600  1
  C  C57  1  0.79807400  0.32949100  0.74307600  1
  C  C58  1  0.20258800  0.32797900  0.40965300  1
  C  C59  1  0.79741200  0.32797900  0.40965300  1
  C  C60  1  0.70057400  0.17035600  0.24222600  1
  C  C61  1  0.29942600  0.17035600  0.24222600  1
  C  C62  1  0.70408200  0.17123900  0.57651000  1
  C  C63  1  0.29591800  0.17123900  0.57651000  1
  C  C64  1  0.70028100  0.17248300  0.90863800  1
  C  C65  1  0.29971900  0.17248300  0.90863800  1
  C  C66  1  0.50000000  0.11793400  0.75500300  1
  C  C67  1  0.50000000  0.11417100  0.08931500  1
  C  C68  1  0.50000000  0.11709800  0.42495900  1
  C  C69  1  0.00000000  0.05341800  0.44960400  1
  C  C70  1  0.00000000  0.05505000  0.11632100  1
  C  C71  1  0.00000000  0.05629900  0.78416600  1
