# generated using pymatgen
data_Cu3NiC2
_symmetry_space_group_name_H-M   'P 1'
_cell_length_a   4.86401724
_cell_length_b   4.86401724
_cell_length_c   12.40846300
_cell_angle_alpha   90.00000000
_cell_angle_beta   90.00000000
_cell_angle_gamma   91.27105570
_symmetry_Int_Tables_number   1
_chemical_formula_structural   Cu3NiC2
_chemical_formula_sum   'Cu12 Ni4 C8'
_cell_volume   293.49541942
_cell_formula_units_Z   4
loop_
 _symmetry_equiv_pos_site_id
 _symmetry_equiv_pos_as_xyz
  1  'x, y, z'
loop_
 _atom_site_type_symbol
 _atom_site_label
 _atom_site_symmetry_multiplicity
 _atom_site_fract_x
 _atom_site_fract_y
 _atom_site_fract_z
 _atom_site_occupancy
  C  C0  1  0.97196200  0.97196200  0.00000000  1
  C  C1  1  0.02409500  0.02409500  0.25035300  1
  C  C2  1  0.01025800  0.01025800  0.50000000  1
  C  C3  1  0.02409500  0.02409500  0.74964700  1
  C  C4  1  0.47458900  0.47458900  0.62492300  1
  C  C5  1  0.50019400  0.50019400  0.12435000  1
  C  C6  1  0.50019400  0.50019400  0.87565000  1
  C  C7  1  0.47458900  0.47458900  0.37507700  1
  Ni  Ni8  1  0.31230600  0.31230600  0.50000000  1
  Ni  Ni9  1  0.32084000  0.32084000  0.24644000  1
  Ni  Ni10  1  0.32084000  0.32084000  0.75356000  1
  Ni  Ni11  1  0.66884900  0.66884900  0.00000000  1
  Cu  Cu12  1  0.79326800  0.20161800  0.12418300  1
  Cu  Cu13  1  0.79468900  0.21119900  0.37585500  1
  Cu  Cu14  1  0.79468900  0.21119900  0.62414500  1
  Cu  Cu15  1  0.79326800  0.20161800  0.87581700  1
  Cu  Cu16  1  0.29290300  0.29290300  0.00000000  1
  Cu  Cu17  1  0.70513900  0.70513900  0.25120700  1
  Cu  Cu18  1  0.69245700  0.69245700  0.50000000  1
  Cu  Cu19  1  0.70513900  0.70513900  0.74879300  1
  Cu  Cu20  1  0.21119900  0.79468900  0.37585500  1
  Cu  Cu21  1  0.21119900  0.79468900  0.62414500  1
  Cu  Cu22  1  0.20161800  0.79326800  0.12418300  1
  Cu  Cu23  1  0.20161800  0.79326800  0.87581700  1
