# generated using pymatgen
data_CuNiC15
_symmetry_space_group_name_H-M   'P 1'
_cell_length_a   5.30975000
_cell_length_b   7.36477317
_cell_length_c   10.37056378
_cell_angle_alpha   105.44666665
_cell_angle_beta   96.97977349
_cell_angle_gamma   110.16861957
_symmetry_Int_Tables_number   1
_chemical_formula_structural   CuNiC15
_chemical_formula_sum   'Cu2 Ni2 C30'
_cell_volume   356.57752964
_cell_formula_units_Z   2
loop_
 _symmetry_equiv_pos_site_id
 _symmetry_equiv_pos_as_xyz
  1  'x, y, z'
loop_
 _atom_site_type_symbol
 _atom_site_label
 _atom_site_symmetry_multiplicity
 _atom_site_fract_x
 _atom_site_fract_y
 _atom_site_fract_z
 _atom_site_occupancy
  C  C0  1  0.34586500  0.93313000  0.78218800  1
  C  C1  1  0.65413500  0.06687000  0.21781200  1
  Ni  Ni2  1  0.00000000  0.00000000  0.50000000  1
  Ni  Ni3  1  0.50000000  0.50000000  0.00000000  1
  Cu  Cu4  1  0.25128700  0.25547100  0.25222800  1
  Cu  Cu5  1  0.74871300  0.74452900  0.74777200  1
  C  C6  1  0.84811700  0.20017300  0.97612000  1
  C  C7  1  0.35164700  0.70231100  0.47424300  1
  C  C8  1  0.15188300  0.79982700  0.02388000  1
  C  C9  1  0.64835300  0.29768900  0.52575700  1
  C  C10  1  0.96159000  0.90117800  0.24616000  1
  C  C11  1  0.03841000  0.09882200  0.75384000  1
  C  C12  1  0.43459800  0.40373900  0.74332100  1
  C  C13  1  0.56540200  0.59626100  0.25667900  1
  C  C14  1  0.77227100  0.52857200  0.59635500  1
  C  C15  1  0.89096400  0.69703500  0.07494700  1
  C  C16  1  0.86868000  0.21002500  0.56062500  1
  C  C17  1  0.91298100  0.23933000  0.13164900  1
  C  C18  1  0.08701900  0.76067000  0.86835100  1
  C  C19  1  0.01214500  0.96591800  0.68698400  1
  C  C20  1  0.98785500  0.03408200  0.31301600  1
  C  C21  1  0.22772900  0.47142800  0.40364500  1
  C  C22  1  0.10903600  0.30296500  0.92505300  1
  C  C23  1  0.38040200  0.72356200  0.06403900  1
  C  C24  1  0.13132000  0.78997500  0.43937500  1
  C  C25  1  0.39123600  0.19927000  0.58207900  1
  C  C26  1  0.28358700  0.03095500  0.10522900  1
  C  C27  1  0.49132900  0.46434400  0.18003400  1
  C  C28  1  0.50867100  0.53565600  0.81996600  1
  C  C29  1  0.43185700  0.76161900  0.63210100  1
  C  C30  1  0.56814300  0.23838100  0.36789900  1
  C  C31  1  0.61959800  0.27643800  0.93596100  1
  C  C32  1  0.60876400  0.80073000  0.41792100  1
  C  C33  1  0.71641300  0.96904500  0.89477100  1
