# generated using pymatgen
data_Cu3NiC3
_symmetry_space_group_name_H-M   'P 1'
_cell_length_a   11.92475600
_cell_length_b   4.15421200
_cell_length_c   12.73048327
_cell_angle_alpha   73.08823262
_cell_angle_beta   90.00000000
_cell_angle_gamma   90.00000000
_symmetry_Int_Tables_number   1
_chemical_formula_structural   Cu3NiC3
_chemical_formula_sum   'Cu12 Ni4 C12'
_cell_volume   603.36938546
_cell_formula_units_Z   4
loop_
 _symmetry_equiv_pos_site_id
 _symmetry_equiv_pos_as_xyz
  1  'x, y, z'
loop_
 _atom_site_type_symbol
 _atom_site_label
 _atom_site_symmetry_multiplicity
 _atom_site_fract_x
 _atom_site_fract_y
 _atom_site_fract_z
 _atom_site_occupancy
  C  C0  1  0.45050500  0.89027800  0.61332500  1
  C  C1  1  0.97333600  0.81443900  0.62538500  1
  C  C2  1  0.22330500  0.42551900  0.01725800  1
  C  C3  1  0.04949500  0.89027800  0.11332500  1
  C  C4  1  0.52666400  0.81443900  0.12538500  1
  C  C5  1  0.72330500  0.57448100  0.48274200  1
  C  C6  1  0.27669500  0.42551900  0.51725800  1
  C  C7  1  0.47333600  0.18556100  0.87461500  1
  C  C8  1  0.95050500  0.10972200  0.88667500  1
  C  C9  1  0.77669500  0.57448100  0.98274200  1
  C  C10  1  0.02666400  0.18556100  0.37461500  1
  C  C11  1  0.54949500  0.10972200  0.38667500  1
  Ni  Ni12  1  0.69343000  0.52212000  0.74881800  1
  Ni  Ni13  1  0.80657000  0.52212000  0.24881800  1
  Ni  Ni14  1  0.19343000  0.47788000  0.75118200  1
  Ni  Ni15  1  0.30657000  0.47788000  0.25118200  1
  Cu  Cu16  1  0.65479800  0.98242300  0.57550200  1
  Cu  Cu17  1  0.58708700  0.66223800  0.89753500  1
  Cu  Cu18  1  0.84520200  0.98242300  0.07550200  1
  Cu  Cu19  1  0.88158300  0.68201800  0.80320500  1
  Cu  Cu20  1  0.91291300  0.66223800  0.39753500  1
  Cu  Cu21  1  0.61841700  0.68201800  0.30320500  1
  Cu  Cu22  1  0.38158300  0.31798200  0.69679500  1
  Cu  Cu23  1  0.08708700  0.33776200  0.60246500  1
  Cu  Cu24  1  0.11841700  0.31798200  0.19679500  1
  Cu  Cu25  1  0.15479800  0.01757700  0.92449800  1
  Cu  Cu26  1  0.41291300  0.33776200  0.10246500  1
  Cu  Cu27  1  0.34520200  0.01757700  0.42449800  1
