# generated using pymatgen
data_Cu9NiC3
_symmetry_space_group_name_H-M   'P 1'
_cell_length_a   5.27957500
_cell_length_b   9.10872600
_cell_length_c   17.77205200
_cell_angle_alpha   90.00000000
_cell_angle_beta   90.00000000
_cell_angle_gamma   90.00000000
_symmetry_Int_Tables_number   1
_chemical_formula_structural   Cu9NiC3
_chemical_formula_sum   'Cu36 Ni4 C12'
_cell_volume   854.66157190
_cell_formula_units_Z   4
loop_
 _symmetry_equiv_pos_site_id
 _symmetry_equiv_pos_as_xyz
  1  'x, y, z'
loop_
 _atom_site_type_symbol
 _atom_site_label
 _atom_site_symmetry_multiplicity
 _atom_site_fract_x
 _atom_site_fract_y
 _atom_site_fract_z
 _atom_site_occupancy
  C  C0  1  0.25000000  0.08349600  0.30427500  1
  C  C1  1  0.25000000  0.41650400  0.80427500  1
  C  C2  1  0.75000000  0.91650400  0.69572500  1
  C  C3  1  0.75000000  0.58349600  0.19572500  1
  C  C4  1  0.25000000  0.48342000  0.30654100  1
  C  C5  1  0.25000000  0.01658000  0.80654100  1
  C  C6  1  0.75000000  0.51658000  0.69345900  1
  C  C7  1  0.75000000  0.98342000  0.19345900  1
  C  C8  1  0.75000000  0.13125600  0.42924700  1
  C  C9  1  0.75000000  0.36874400  0.92924700  1
  C  C10  1  0.25000000  0.86874400  0.57075300  1
  C  C11  1  0.25000000  0.63125600  0.07075300  1
  Ni  Ni12  1  0.25000000  0.14047000  0.04714000  1
  Ni  Ni13  1  0.25000000  0.35953000  0.54714000  1
  Ni  Ni14  1  0.75000000  0.85953000  0.95286000  1
  Ni  Ni15  1  0.75000000  0.64047000  0.45286000  1
  Cu  Cu16  1  0.97578700  0.07002700  0.22450000  1
  Cu  Cu17  1  0.52421300  0.42997300  0.72450000  1
  Cu  Cu18  1  0.47578700  0.92997300  0.77550000  1
  Cu  Cu19  1  0.02421300  0.57002700  0.27550000  1
  Cu  Cu20  1  0.02421300  0.92997300  0.77550000  1
  Cu  Cu21  1  0.47578700  0.57002700  0.27550000  1
  Cu  Cu22  1  0.52421300  0.07002700  0.22450000  1
  Cu  Cu23  1  0.97578700  0.42997300  0.72450000  1
  Cu  Cu24  1  0.97547200  0.16060400  0.37954600  1
  Cu  Cu25  1  0.52452800  0.33939600  0.87954600  1
  Cu  Cu26  1  0.47547200  0.83939600  0.62045400  1
  Cu  Cu27  1  0.02452800  0.66060400  0.12045400  1
  Cu  Cu28  1  0.02452800  0.83939600  0.62045400  1
  Cu  Cu29  1  0.47547200  0.66060400  0.12045400  1
  Cu  Cu30  1  0.52452800  0.16060400  0.37954600  1
  Cu  Cu31  1  0.97547200  0.33939600  0.87954600  1
  Cu  Cu32  1  0.25000000  0.33672900  0.27182900  1
  Cu  Cu33  1  0.25000000  0.16327100  0.77182900  1
  Cu  Cu34  1  0.75000000  0.66327100  0.72817100  1
  Cu  Cu35  1  0.75000000  0.83672900  0.22817100  1
  Cu  Cu36  1  0.25000000  0.48074500  0.04194100  1
  Cu  Cu37  1  0.25000000  0.01925500  0.54194100  1
  Cu  Cu38  1  0.75000000  0.51925500  0.95805900  1
  Cu  Cu39  1  0.75000000  0.98074500  0.45805900  1
  Cu  Cu40  1  0.75000000  0.23494800  0.49226200  1
  Cu  Cu41  1  0.75000000  0.26505200  0.99226200  1
  Cu  Cu42  1  0.25000000  0.76505200  0.50773800  1
  Cu  Cu43  1  0.25000000  0.73494800  0.00773800  1
  Cu  Cu44  1  0.25000000  0.48780400  0.38707700  1
  Cu  Cu45  1  0.25000000  0.01219600  0.88707700  1
  Cu  Cu46  1  0.75000000  0.51219600  0.61292300  1
  Cu  Cu47  1  0.75000000  0.98780400  0.11292300  1
  Cu  Cu48  1  0.75000000  0.40374300  0.16562200  1
  Cu  Cu49  1  0.75000000  0.09625700  0.66562200  1
  Cu  Cu50  1  0.25000000  0.59625700  0.83437800  1
  Cu  Cu51  1  0.25000000  0.90374300  0.33437800  1
