# generated using pymatgen
data_CuNi5C3
_symmetry_space_group_name_H-M   'P 1'
_cell_length_a   10.55445180
_cell_length_b   10.55445180
_cell_length_c   3.01807300
_cell_angle_alpha   90.00000000
_cell_angle_beta   90.00000000
_cell_angle_gamma   144.54776847
_symmetry_Int_Tables_number   1
_chemical_formula_structural   CuNi5C3
_chemical_formula_sum   'Cu2 Ni10 C6'
_cell_volume   195.00559607
_cell_formula_units_Z   2
loop_
 _symmetry_equiv_pos_site_id
 _symmetry_equiv_pos_as_xyz
  1  'x, y, z'
loop_
 _atom_site_type_symbol
 _atom_site_label
 _atom_site_symmetry_multiplicity
 _atom_site_fract_x
 _atom_site_fract_y
 _atom_site_fract_z
 _atom_site_occupancy
  C  C0  1  0.67704200  0.32295800  0.00000000  1
  C  C1  1  0.16381100  0.83618900  0.50000000  1
  C  C2  1  0.32295800  0.67704200  0.00000000  1
  C  C3  1  0.50000000  0.50000000  0.50000000  1
  C  C4  1  0.83618900  0.16381100  0.50000000  1
  C  C5  1  0.00000000  0.00000000  0.00000000  1
  Ni  Ni6  1  0.97074900  0.64050600  0.00000000  1
  Ni  Ni7  1  0.02925100  0.35949400  0.00000000  1
  Ni  Ni8  1  0.35949400  0.02925100  0.00000000  1
  Ni  Ni9  1  0.26453400  0.73546600  0.50000000  1
  Ni  Ni10  1  0.73546600  0.26453400  0.50000000  1
  Ni  Ni11  1  0.64050600  0.97074900  0.00000000  1
  Ni  Ni12  1  0.68795200  0.68795200  0.00000000  1
  Ni  Ni13  1  0.93780700  0.06219300  0.50000000  1
  Ni  Ni14  1  0.06219300  0.93780700  0.50000000  1
  Ni  Ni15  1  0.31204800  0.31204800  0.00000000  1
  Cu  Cu16  1  0.39578800  0.60421200  0.50000000  1
  Cu  Cu17  1  0.60421200  0.39578800  0.50000000  1
