# generated using pymatgen
data_Cu11(NiC16)5
_symmetry_space_group_name_H-M   'P 1'
_cell_length_a   5.02216817
_cell_length_b   5.02216817
_cell_length_c   38.48053647
_cell_angle_alpha   88.94805263
_cell_angle_beta   88.94805263
_cell_angle_gamma   119.76284296
_symmetry_Int_Tables_number   1
_chemical_formula_structural   Cu11(NiC16)5
_chemical_formula_sum   'Cu11 Ni5 C80'
_cell_volume   841.96936289
_cell_formula_units_Z   1
loop_
 _symmetry_equiv_pos_site_id
 _symmetry_equiv_pos_as_xyz
  1  'x, y, z'
loop_
 _atom_site_type_symbol
 _atom_site_label
 _atom_site_symmetry_multiplicity
 _atom_site_fract_x
 _atom_site_fract_y
 _atom_site_fract_z
 _atom_site_occupancy
  C  C0  1  0.46656200  0.91331900  0.43742100  1
  C  C1  1  0.87475700  0.00125900  0.18768500  1
  C  C2  1  0.81169300  0.94019000  0.37497200  1
  C  C3  1  0.74920700  0.87853100  0.56255000  1
  C  C4  1  0.68756800  0.81029900  0.74992600  1
  C  C5  1  0.62938800  0.74952300  0.93770300  1
  C  C6  1  0.56263400  0.68771100  0.12497500  1
  C  C7  1  0.16691300  0.96602900  0.31241200  1
  C  C8  1  0.49647300  0.62723100  0.31247300  1
  C  C9  1  0.03397100  0.83308700  0.68758800  1
  C  C10  1  0.91267800  0.71850300  0.06226600  1
  C  C11  1  0.43800400  0.56199600  0.50000000  1
  C  C12  1  0.37276900  0.50352700  0.68752700  1
  C  C13  1  0.78731900  0.58677200  0.43753100  1
  C  C14  1  0.66367600  0.46869600  0.81222600  1
  C  C15  1  0.33777100  0.78269100  0.81245100  1
  C  C16  1  0.21730900  0.66222900  0.18754900  1
  C  C17  1  0.53130400  0.33632400  0.18777400  1
  C  C18  1  0.41322800  0.21268100  0.56246900  1
  C  C19  1  0.08668100  0.53343800  0.56257900  1
  C  C20  1  0.96323900  0.41196000  0.93764600  1
  C  C21  1  0.31228900  0.43736600  0.87502500  1
  C  C22  1  0.83548000  0.28164600  0.31254900  1
  C  C23  1  0.71835400  0.16452000  0.68745100  1
  C  C24  1  0.25047700  0.37061200  0.06229700  1
  C  C25  1  0.58804000  0.03676100  0.06235400  1
  C  C26  1  0.18970100  0.31243200  0.25007400  1
  C  C27  1  0.12146900  0.25079300  0.43745000  1
  C  C28  1  0.05981000  0.18830700  0.62502800  1
  C  C29  1  0.99874100  0.12524300  0.81231500  1
  C  C30  1  0.93929900  0.06070100  0.00000000  1
  C  C31  1  0.28149700  0.08732200  0.93773400  1
  Ni  Ni32  1  0.52098200  0.97960200  0.24998100  1
  Ni  Ni33  1  0.39487700  0.85544500  0.62490700  1
  Ni  Ni34  1  0.60530000  0.39470000  0.00000000  1
  Ni  Ni35  1  0.14455500  0.60512300  0.37509300  1
  Ni  Ni36  1  0.02039800  0.47901800  0.75001900  1
  Cu  Cu37  1  0.10359200  0.89640800  0.50000000  1
  Cu  Cu38  1  0.98314500  0.76664600  0.87495400  1
  Cu  Cu39  1  0.85914500  0.64377500  0.25003600  1
  Cu  Cu40  1  0.72536300  0.52149400  0.62493900  1
  Cu  Cu41  1  0.27311000  0.72689000  0.00000000  1
  Cu  Cu42  1  0.47850600  0.27463700  0.37506100  1
  Cu  Cu43  1  0.89168200  0.35868300  0.12496900  1
  Cu  Cu44  1  0.77178400  0.22821600  0.50000000  1
  Cu  Cu45  1  0.64131700  0.10831800  0.87503100  1
  Cu  Cu46  1  0.35622500  0.14085500  0.74996400  1
  Cu  Cu47  1  0.23335400  0.01685500  0.12504600  1
  C  C48  1  0.43688500  0.91780600  0.52802100  1
  C  C49  1  0.46184100  0.94170100  0.34695200  1
  C  C50  1  0.80387900  0.92833400  0.47118400  1
  C  C51  1  0.68098300  0.80604100  0.84652000  1
  C  C52  1  0.81824200  0.94207700  0.27838000  1
  C  C53  1  0.69446900  0.82343500  0.65359600  1
  C  C54  1  0.57219000  0.69453000  0.02850500  1
  C  C55  1  0.55339600  0.68014300  0.22145100  1
  C  C56  1  0.42954800  0.55590900  0.59642700  1
  C  C57  1  0.16711300  0.93127500  0.40291700  1
  C  C58  1  0.44409100  0.57045200  0.40357300  1
  C  C59  1  0.03276900  0.79930100  0.77811600  1
  C  C60  1  0.90715000  0.66772700  0.15339800  1
  C  C61  1  0.20069900  0.96723100  0.22188400  1
  C  C62  1  0.06872500  0.83288700  0.59708300  1
  C  C63  1  0.94094300  0.71194200  0.97187500  1
  C  C64  1  0.29227600  0.78200600  0.90342700  1
  C  C65  1  0.33636300  0.82102700  0.72212300  1
  C  C66  1  0.21799400  0.70772400  0.09657300  1
  C  C67  1  0.79298200  0.56159100  0.52812700  1
  C  C68  1  0.65640000  0.41789600  0.90331600  1
  C  C69  1  0.81786800  0.58162200  0.34713800  1
  C  C70  1  0.70223700  0.46796300  0.72176800  1
  C  C71  1  0.58210400  0.34360000  0.09668400  1
  C  C72  1  0.17897300  0.66363700  0.27787700  1
  C  C73  1  0.05829900  0.53815900  0.65304800  1
  C  C74  1  0.93213800  0.41785300  0.02783500  1
  C  C75  1  0.08219400  0.56311500  0.47197900  1
  C  C76  1  0.96804600  0.45698500  0.84667100  1
  C  C77  1  0.53203700  0.29776300  0.27823200  1
  C  C78  1  0.41837800  0.18213200  0.65286200  1
  C  C79  1  0.43840900  0.20701800  0.47187300  1
  C  C80  1  0.80924100  0.28795100  0.40326400  1
  C  C81  1  0.67748000  0.16530100  0.77790600  1
  C  C82  1  0.54301500  0.03195400  0.15332900  1
  C  C83  1  0.83469900  0.32252000  0.22209400  1
  C  C84  1  0.71204900  0.19075900  0.59673600  1
  C  C85  1  0.30547000  0.42781000  0.97149500  1
  C  C86  1  0.58214700  0.06786200  0.97216500  1
  C  C87  1  0.31985700  0.44660400  0.77854900  1
  C  C88  1  0.19395900  0.31901700  0.15348000  1
  C  C89  1  0.17656500  0.30553100  0.34640400  1
  C  C90  1  0.05792300  0.18175800  0.72162000  1
  C  C91  1  0.93027400  0.05583600  0.09650500  1
  C  C92  1  0.07166600  0.19612100  0.52881600  1
  C  C93  1  0.94416400  0.06972600  0.90349500  1
  C  C94  1  0.28805800  0.05905700  0.02812500  1
  C  C95  1  0.33227300  0.09285000  0.84660200  1
