# generated using pymatgen
data_Cu(NiC3)2
_symmetry_space_group_name_H-M   'P 1'
_cell_length_a   4.82910201
_cell_length_b   10.39951891
_cell_length_c   9.65930110
_cell_angle_alpha   62.34460947
_cell_angle_beta   90.00166628
_cell_angle_gamma   90.00826420
_symmetry_Int_Tables_number   1
_chemical_formula_structural   Cu(NiC3)2
_chemical_formula_sum   'Cu4 Ni8 C24'
_cell_volume   429.67400066
_cell_formula_units_Z   4
loop_
 _symmetry_equiv_pos_site_id
 _symmetry_equiv_pos_as_xyz
  1  'x, y, z'
loop_
 _atom_site_type_symbol
 _atom_site_label
 _atom_site_symmetry_multiplicity
 _atom_site_fract_x
 _atom_site_fract_y
 _atom_site_fract_z
 _atom_site_occupancy
  Ni  Ni0  1  0.99997800  0.00262300  0.49869700  1
  Ni  Ni1  1  0.99998600  0.00276000  0.99862400  1
  Ni  Ni2  1  0.00002300  0.66404300  0.16797500  1
  Ni  Ni3  1  0.00001400  0.66390600  0.66804800  1
  Ni  Ni4  1  0.49997000  0.16396600  0.16783600  1
  Ni  Ni5  1  0.49993500  0.16396500  0.66816800  1
  Ni  Ni6  1  0.50006600  0.50270200  0.99850200  1
  Ni  Ni7  1  0.50002600  0.50270000  0.49883500  1
  Cu  Cu8  1  0.99999900  0.33333600  0.33332700  1
  Cu  Cu9  1  0.50000000  0.83333600  0.83332700  1
  Cu  Cu10  1  0.99999900  0.33333600  0.83332700  1
  Cu  Cu11  1  0.50000100  0.83333600  0.33332700  1
  C  C12  1  0.19015200  0.83336000  0.67837500  1
  C  C13  1  0.19016000  0.83333300  0.17839300  1
  C  C14  1  0.31006300  0.33333200  0.17826400  1
  C  C15  1  0.30965700  0.33333600  0.67850700  1
  C  C16  1  0.69033100  0.33332300  0.98815800  1
  C  C17  1  0.68992300  0.33332900  0.48840000  1
  C  C18  1  0.80986300  0.83329900  0.98829000  1
  C  C19  1  0.80985500  0.83332600  0.48827200  1
  C  C20  1  0.20356300  0.15846000  0.02259600  1
  C  C21  1  0.20385000  0.15812700  0.52286200  1
  C  C22  1  0.20336800  0.50818000  0.84763100  1
  C  C23  1  0.20355800  0.50844200  0.34756300  1
  C  C24  1  0.29651500  0.00826700  0.34760200  1
  C  C25  1  0.29642500  0.00839900  0.84766000  1
  C  C26  1  0.29637800  0.65838300  0.02259200  1
  C  C27  1  0.29630600  0.65823100  0.52278800  1
  C  C28  1  0.70370600  0.00843800  0.14388100  1
  C  C29  1  0.70363200  0.00828600  0.64407800  1
  C  C30  1  0.70357200  0.65827100  0.81900600  1
  C  C31  1  0.70348400  0.65840300  0.31906500  1
  C  C32  1  0.79644400  0.15822600  0.31910300  1
  C  C33  1  0.79663300  0.15849000  0.81903600  1
  C  C34  1  0.79613800  0.50854100  0.14380800  1
  C  C35  1  0.79642600  0.50821000  0.64407300  1
