# generated using pymatgen
data_Cu3Ni3C28
_symmetry_space_group_name_H-M   'P 1'
_cell_length_a   5.96222388
_cell_length_b   5.96222388
_cell_length_c   9.83417506
_cell_angle_alpha   89.84653147
_cell_angle_beta   89.84653147
_cell_angle_gamma   60.05153994
_symmetry_Int_Tables_number   1
_chemical_formula_structural   Cu3Ni3C28
_chemical_formula_sum   'Cu3 Ni3 C28'
_cell_volume   302.90634041
_cell_formula_units_Z   1
loop_
 _symmetry_equiv_pos_site_id
 _symmetry_equiv_pos_as_xyz
  1  'x, y, z'
loop_
 _atom_site_type_symbol
 _atom_site_label
 _atom_site_symmetry_multiplicity
 _atom_site_fract_x
 _atom_site_fract_y
 _atom_site_fract_z
 _atom_site_occupancy
  C  C0  1  0.38228600  0.79780100  0.04906600  1
  C  C1  1  0.79780100  0.38228600  0.04906600  1
  C  C2  1  0.65473500  0.65473500  0.26802300  1
  C  C3  1  0.99225000  0.99225000  0.97506300  1
  C  C4  1  0.98828200  0.98828200  0.47993000  1
  C  C5  1  0.79886000  0.79886000  0.04993000  1
  C  C6  1  0.18282300  0.18282300  0.55205000  1
  C  C7  1  0.59354100  0.19148800  0.54695100  1
  C  C8  1  0.19148800  0.59354100  0.54695100  1
  C  C9  1  0.32101700  0.32101700  0.76823200  1
  C  C10  1  0.32169000  0.32169000  0.02193100  1
  C  C11  1  0.65361800  0.65361800  0.52523500  1
  Ni  Ni12  1  0.82237500  0.82237500  0.77786800  1
  Ni  Ni13  1  0.15721200  0.64954600  0.27984200  1
  Ni  Ni14  1  0.64954600  0.15721200  0.27984200  1
  Cu  Cu15  1  0.33253500  0.81514100  0.78171000  1
  Cu  Cu16  1  0.15626600  0.15626600  0.28116100  1
  Cu  Cu17  1  0.81514100  0.33253500  0.78171000  1
  C  C18  1  0.32093400  0.81219100  0.40625100  1
  C  C19  1  0.50069500  0.50069500  0.65362400  1
  C  C20  1  0.66004100  0.66004100  0.89791100  1
  C  C21  1  0.50910400  0.96603800  0.65280000  1
  C  C22  1  0.99146000  0.99146000  0.67176300  1
  C  C23  1  0.98347500  0.98347500  0.16819600  1
  C  C24  1  0.81219100  0.32093400  0.40625100  1
  C  C25  1  0.96603800  0.50910400  0.65280000  1
  C  C26  1  0.15946600  0.15946600  0.90519600  1
  C  C27  1  0.82148000  0.82148000  0.39900800  1
  C  C28  1  0.01221400  0.48339300  0.15348300  1
  C  C29  1  0.48339300  0.01221400  0.15348300  1
  C  C30  1  0.32526500  0.32526500  0.39821100  1
  C  C31  1  0.15217900  0.65530400  0.90279400  1
  C  C32  1  0.47871800  0.47871800  0.15487600  1
  C  C33  1  0.65530400  0.15217900  0.90279400  1
