# generated using pymatgen
data_Cu4Ni4C17
_symmetry_space_group_name_H-M   'P 1'
_cell_length_a   9.35968651
_cell_length_b   9.35968651
_cell_length_c   20.34017173
_cell_angle_alpha   86.86276654
_cell_angle_beta   86.86276654
_cell_angle_gamma   113.09788876
_symmetry_Int_Tables_number   1
_chemical_formula_structural   Cu4Ni4C17
_chemical_formula_sum   'Cu16 Ni16 C68'
_cell_volume   1630.93442400
_cell_formula_units_Z   4
loop_
 _symmetry_equiv_pos_site_id
 _symmetry_equiv_pos_as_xyz
  1  'x, y, z'
loop_
 _atom_site_type_symbol
 _atom_site_label
 _atom_site_symmetry_multiplicity
 _atom_site_fract_x
 _atom_site_fract_y
 _atom_site_fract_z
 _atom_site_occupancy
  C  C0  1  0.54012900  0.97123200  0.26058900  1
  C  C1  1  0.55847400  0.45770700  0.09755300  1
  C  C2  1  0.54229300  0.44152600  0.40244700  1
  C  C3  1  0.97123200  0.54012900  0.76058900  1
  C  C4  1  0.02876800  0.45987100  0.23941100  1
  C  C5  1  0.45770700  0.55847400  0.59755300  1
  C  C6  1  0.44152600  0.54229300  0.90244700  1
  C  C7  1  0.45987100  0.02876800  0.73941100  1
  Ni  Ni8  1  0.09592200  0.14987900  0.43430300  1
  Ni  Ni9  1  0.07302400  0.66508800  0.06335600  1
  Ni  Ni10  1  0.00000000  0.50000000  0.50000000  1
  Ni  Ni11  1  0.14987900  0.09592200  0.93430300  1
  Ni  Ni12  1  0.19394400  0.80605600  0.25000000  1
  Ni  Ni13  1  0.47897900  0.52102100  0.25000000  1
  Ni  Ni14  1  0.97516700  0.02483300  0.25000000  1
  Ni  Ni15  1  0.66508800  0.07302400  0.56335600  1
  Ni  Ni16  1  0.33491200  0.92697600  0.43664400  1
  Ni  Ni17  1  0.02483300  0.97516700  0.75000000  1
  Ni  Ni18  1  0.80605600  0.19394400  0.75000000  1
  Ni  Ni19  1  0.52102100  0.47897900  0.75000000  1
  Ni  Ni20  1  0.85012100  0.90407800  0.06569700  1
  Ni  Ni21  1  0.92697600  0.33491200  0.93664400  1
  Ni  Ni22  1  0.90407800  0.85012100  0.56569700  1
  Ni  Ni23  1  0.50000000  0.00000000  0.00000000  1
  Cu  Cu24  1  0.26113000  0.12348400  0.10410100  1
  Cu  Cu25  1  0.04946200  0.28823200  0.11258100  1
  Cu  Cu26  1  0.36425700  0.16543200  0.32191900  1
  Cu  Cu27  1  0.12348400  0.26113000  0.60410100  1
  Cu  Cu28  1  0.28823200  0.04946200  0.61258100  1
  Cu  Cu29  1  0.22977400  0.53737500  0.37218100  1
  Cu  Cu30  1  0.16543200  0.36425700  0.82191900  1
  Cu  Cu31  1  0.46262500  0.77022600  0.12781900  1
  Cu  Cu32  1  0.53737500  0.22977400  0.87218100  1
  Cu  Cu33  1  0.83456800  0.63574300  0.17808100  1
  Cu  Cu34  1  0.77022600  0.46262500  0.62781900  1
  Cu  Cu35  1  0.71176800  0.95053800  0.38741900  1
  Cu  Cu36  1  0.87651600  0.73887000  0.39589900  1
  Cu  Cu37  1  0.63574300  0.83456800  0.67808100  1
  Cu  Cu38  1  0.95053800  0.71176800  0.88741900  1
  Cu  Cu39  1  0.73887000  0.87651600  0.89589900  1
  C  C40  1  0.20914300  0.06220900  0.17721200  1
  C  C41  1  0.18624900  0.13573900  0.32517800  1
  C  C42  1  0.21212300  0.27371200  0.09074600  1
  C  C43  1  0.43712900  0.19665400  0.08475700  1
  C  C44  1  0.05490900  0.42777100  0.06695200  1
  C  C45  1  0.06220900  0.20914300  0.67721200  1
  C  C46  1  0.43110200  0.22326900  0.38793900  1
  C  C47  1  0.09540200  0.38858900  0.40840100  1
  C  C48  1  0.99997400  0.62452300  0.18237600  1
  C  C49  1  0.13573900  0.18624900  0.82517800  1
  C  C50  1  0.45491900  0.27574700  0.26165400  1
  C  C51  1  0.27371200  0.21212300  0.59074600  1
  C  C52  1  0.19665400  0.43712900  0.58475700  1
  C  C53  1  0.42777100  0.05490900  0.56695200  1
  C  C54  1  0.18340000  0.56450400  0.30111200  1
  C  C55  1  0.68846600  0.95646800  0.31411900  1
  C  C56  1  0.17091500  0.00068400  0.05722200  1
  C  C57  1  0.91512300  0.13759300  0.09674800  1
  C  C58  1  0.32679300  0.76851100  0.08579700  1
  C  C59  1  0.22326900  0.43110200  0.88793900  1
  C  C60  1  0.47997900  0.61342900  0.12999100  1
  C  C61  1  0.38858900  0.09540200  0.90840100  1
  C  C62  1  0.38657100  0.52002100  0.37000900  1
  C  C63  1  0.23148900  0.67320700  0.41420300  1
  C  C64  1  0.86240700  0.08487700  0.40325200  1
  C  C65  1  0.99931600  0.82908500  0.44277800  1
  C  C66  1  0.62452300  0.99997400  0.68237600  1
  C  C67  1  0.27574700  0.45491900  0.76165400  1
  C  C68  1  0.04353200  0.31153400  0.18588100  1
  C  C69  1  0.43549600  0.81660000  0.19888800  1
  C  C70  1  0.56450400  0.18340000  0.80111200  1
  C  C71  1  0.95646800  0.68846600  0.81411900  1
  C  C72  1  0.72425300  0.54508100  0.23834600  1
  C  C73  1  0.37547700  0.00002600  0.31762400  1
  C  C74  1  0.00068400  0.17091500  0.55722200  1
  C  C75  1  0.13759300  0.91512300  0.59674800  1
  C  C76  1  0.76851100  0.32679300  0.58579700  1
  C  C77  1  0.61342900  0.47997900  0.62999100  1
  C  C78  1  0.61141100  0.90459800  0.09159900  1
  C  C79  1  0.52002100  0.38657100  0.87000900  1
  C  C80  1  0.77673100  0.56889800  0.11206100  1
  C  C81  1  0.67320700  0.23148900  0.91420300  1
  C  C82  1  0.08487700  0.86240700  0.90325200  1
  C  C83  1  0.82908500  0.99931600  0.94277800  1
  C  C84  1  0.31153400  0.04353200  0.68588100  1
  C  C85  1  0.81660000  0.43549600  0.69888800  1
  C  C86  1  0.57222900  0.94509100  0.43304800  1
  C  C87  1  0.80334600  0.56287100  0.41524300  1
  C  C88  1  0.72628800  0.78787700  0.40925400  1
  C  C89  1  0.54508100  0.72425300  0.73834600  1
  C  C90  1  0.86426100  0.81375100  0.17482200  1
  C  C91  1  0.00002600  0.37547700  0.81762400  1
  C  C92  1  0.90459800  0.61141100  0.59159900  1
  C  C93  1  0.56889800  0.77673100  0.61206100  1
  C  C94  1  0.93779100  0.79085700  0.32278800  1
  C  C95  1  0.94509100  0.57222900  0.93304800  1
  C  C96  1  0.56287100  0.80334600  0.91524300  1
  C  C97  1  0.78787700  0.72628800  0.90925400  1
  C  C98  1  0.81375100  0.86426100  0.67482200  1
  C  C99  1  0.79085700  0.93779100  0.82278800  1
