# generated using pymatgen
data_Cu5(NiC2)2
_symmetry_space_group_name_H-M   'P 1'
_cell_length_a   8.83709335
_cell_length_b   8.83709335
_cell_length_c   7.39843200
_cell_angle_alpha   90.00000000
_cell_angle_beta   90.00000000
_cell_angle_gamma   130.45693427
_symmetry_Int_Tables_number   1
_chemical_formula_structural   Cu5(NiC2)2
_chemical_formula_sum   'Cu10 Ni4 C8'
_cell_volume   439.62529674
_cell_formula_units_Z   2
loop_
 _symmetry_equiv_pos_site_id
 _symmetry_equiv_pos_as_xyz
  1  'x, y, z'
loop_
 _atom_site_type_symbol
 _atom_site_label
 _atom_site_symmetry_multiplicity
 _atom_site_fract_x
 _atom_site_fract_y
 _atom_site_fract_z
 _atom_site_occupancy
  C  C0  1  0.33761700  0.66238300  0.00000000  1
  C  C1  1  0.75000000  0.75000000  0.25000000  1
  C  C2  1  0.25000000  0.25000000  0.25000000  1
  C  C3  1  0.16238300  0.83761700  0.50000000  1
  C  C4  1  0.66238300  0.33761700  0.00000000  1
  C  C5  1  0.75000000  0.75000000  0.75000000  1
  C  C6  1  0.25000000  0.25000000  0.75000000  1
  C  C7  1  0.83761700  0.16238300  0.50000000  1
  Ni  Ni8  1  0.12049000  0.87951000  0.00000000  1
  Ni  Ni9  1  0.87951000  0.12049000  0.00000000  1
  Ni  Ni10  1  0.37951000  0.62049000  0.50000000  1
  Ni  Ni11  1  0.62049000  0.37951000  0.50000000  1
  Cu  Cu12  1  0.26820200  0.94249000  0.10102600  1
  Cu  Cu13  1  0.50000000  0.50000000  0.00000000  1
  Cu  Cu14  1  0.44249000  0.76820200  0.60102600  1
  Cu  Cu15  1  0.23179800  0.55751000  0.39897400  1
  Cu  Cu16  1  0.73179800  0.05751000  0.10102600  1
  Cu  Cu17  1  0.76820200  0.44249000  0.39897400  1
  Cu  Cu18  1  0.00000000  0.00000000  0.50000000  1
  Cu  Cu19  1  0.05751000  0.73179800  0.89897400  1
  Cu  Cu20  1  0.55751000  0.23179800  0.60102600  1
  Cu  Cu21  1  0.94249000  0.26820200  0.89897400  1
