# generated using pymatgen
data_Cu3Ni3C22
_symmetry_space_group_name_H-M   'P 1'
_cell_length_a   5.98354961
_cell_length_b   5.98354961
_cell_length_c   10.15504870
_cell_angle_alpha   89.72119810
_cell_angle_beta   89.72119810
_cell_angle_gamma   60.24338320
_symmetry_Int_Tables_number   1
_chemical_formula_structural   Cu3Ni3C22
_chemical_formula_sum   'Cu3 Ni3 C22'
_cell_volume   315.63376063
_cell_formula_units_Z   1
loop_
 _symmetry_equiv_pos_site_id
 _symmetry_equiv_pos_as_xyz
  1  'x, y, z'
loop_
 _atom_site_type_symbol
 _atom_site_label
 _atom_site_symmetry_multiplicity
 _atom_site_fract_x
 _atom_site_fract_y
 _atom_site_fract_z
 _atom_site_occupancy
  C  C0  1  0.66563800  0.66563800  0.89816100  1
  C  C1  1  0.99945300  0.99945300  0.99187400  1
  C  C2  1  0.99972800  0.99972800  0.49601900  1
  C  C3  1  0.33309200  0.33309200  0.39297300  1
  Ni  Ni4  1  0.83263800  0.34546300  0.21759100  1
  Ni  Ni5  1  0.34546300  0.83263800  0.21759100  1
  Ni  Ni6  1  0.17187400  0.17187400  0.72291000  1
  Cu  Cu7  1  0.83120700  0.83120700  0.20697800  1
  Cu  Cu8  1  0.66180900  0.16965300  0.72074900  1
  Cu  Cu9  1  0.16965300  0.66180900  0.72074900  1
  C  C10  1  0.66942300  0.66942300  0.51096200  1
  C  C11  1  0.33627600  0.33627600  0.99288500  1
  C  C12  1  0.84795700  0.31466300  0.61082300  1
  C  C13  1  0.51069700  0.51069700  0.31552500  1
  C  C14  1  0.66163600  0.66163600  0.10664200  1
  C  C15  1  0.00091100  0.00091100  0.30749700  1
  C  C16  1  0.00235900  0.00235900  0.81240000  1
  C  C17  1  0.31466300  0.84795700  0.61082300  1
  C  C18  1  0.98051700  0.49902600  0.31531200  1
  C  C19  1  0.49902600  0.98051700  0.31531200  1
  C  C20  1  0.15614500  0.15614500  0.09656000  1
  C  C21  1  0.84401800  0.84401800  0.60981200  1
  C  C22  1  0.47694400  0.03245400  0.83721200  1
  C  C23  1  0.03245400  0.47694400  0.83721200  1
  C  C24  1  0.32886300  0.32886300  0.61368100  1
  C  C25  1  0.68550300  0.15895800  0.09607700  1
  C  C26  1  0.48308200  0.48308200  0.83743200  1
  C  C27  1  0.15895800  0.68550300  0.09607700  1
