# generated using pymatgen
data_Cu16Ni2C19
_symmetry_space_group_name_H-M   'P 1'
_cell_length_a   8.42427959
_cell_length_b   8.42427959
_cell_length_c   4.78610890
_cell_angle_alpha   81.35778381
_cell_angle_beta   81.35778381
_cell_angle_gamma   105.06374207
_symmetry_Int_Tables_number   1
_chemical_formula_structural   Cu16Ni2C19
_chemical_formula_sum   'Cu16 Ni2 C19'
_cell_volume   317.82731155
_cell_formula_units_Z   1
loop_
 _symmetry_equiv_pos_site_id
 _symmetry_equiv_pos_as_xyz
  1  'x, y, z'
loop_
 _atom_site_type_symbol
 _atom_site_label
 _atom_site_symmetry_multiplicity
 _atom_site_fract_x
 _atom_site_fract_y
 _atom_site_fract_z
 _atom_site_occupancy
  C  C0  1  0.00000000  0.00000000  0.00000000  1
  C  C1  1  0.38988300  0.61011700  0.00000000  1
  C  C2  1  0.61011700  0.38988300  0.00000000  1
  Ni  Ni3  1  0.68841400  0.68841400  0.37391600  1
  Ni  Ni4  1  0.31158600  0.31158600  0.62608400  1
  Cu  Cu5  1  0.31890200  0.06049300  0.05706700  1
  Cu  Cu6  1  0.93950700  0.68109800  0.94293300  1
  Cu  Cu7  1  0.68109800  0.93950700  0.94293300  1
  Cu  Cu8  1  0.06049300  0.31890200  0.05706700  1
  Cu  Cu9  1  0.21009800  0.04359800  0.36608100  1
  Cu  Cu10  1  0.95640200  0.78990200  0.63391900  1
  Cu  Cu11  1  0.78990200  0.95640200  0.63391900  1
  Cu  Cu12  1  0.04359800  0.21009800  0.36608100  1
  Cu  Cu13  1  0.82767500  0.43359200  0.51509900  1
  Cu  Cu14  1  0.56640800  0.17232500  0.48490100  1
  Cu  Cu15  1  0.17232500  0.56640800  0.48490100  1
  Cu  Cu16  1  0.43359200  0.82767500  0.51509900  1
  Cu  Cu17  1  0.82469900  0.26220300  0.71489800  1
  Cu  Cu18  1  0.73779700  0.17530100  0.28510200  1
  Cu  Cu19  1  0.17530100  0.73779700  0.28510200  1
  Cu  Cu20  1  0.26220300  0.82469900  0.71489800  1
  C  C21  1  0.84305800  0.84305800  0.36791600  1
  C  C22  1  0.15694200  0.15694200  0.63208400  1
  C  C23  1  0.61071200  0.61071200  0.69432800  1
  C  C24  1  0.38928800  0.38928800  0.30567200  1
  C  C25  1  0.56140100  0.75562300  0.21902000  1
  C  C26  1  0.24437700  0.43859900  0.78098000  1
  C  C27  1  0.43859900  0.24437700  0.78098000  1
  C  C28  1  0.75562300  0.56140100  0.21902000  1
  C  C29  1  0.01537300  0.78062700  0.79885000  1
  C  C30  1  0.21937300  0.98462700  0.20115000  1
  C  C31  1  0.98462700  0.21937300  0.20115000  1
  C  C32  1  0.78062700  0.01537300  0.79885000  1
  C  C33  1  0.82725000  0.37986600  0.71336000  1
  C  C34  1  0.62013400  0.17275000  0.28664000  1
  C  C35  1  0.17275000  0.62013400  0.28664000  1
  C  C36  1  0.37986600  0.82725000  0.71336000  1
