# generated using pymatgen
data_Cu5NiC7
_symmetry_space_group_name_H-M   'P 1'
_cell_length_a   7.38482600
_cell_length_b   9.47725600
_cell_length_c   17.36121500
_cell_angle_alpha   90.00000000
_cell_angle_beta   90.00000000
_cell_angle_gamma   90.00000000
_symmetry_Int_Tables_number   1
_chemical_formula_structural   Cu5NiC7
_chemical_formula_sum   'Cu40 Ni8 C56'
_cell_volume   1215.07474523
_cell_formula_units_Z   8
loop_
 _symmetry_equiv_pos_site_id
 _symmetry_equiv_pos_as_xyz
  1  'x, y, z'
loop_
 _atom_site_type_symbol
 _atom_site_label
 _atom_site_symmetry_multiplicity
 _atom_site_fract_x
 _atom_site_fract_y
 _atom_site_fract_z
 _atom_site_occupancy
  C  C0  1  0.00000000  0.00000000  0.00000000  1
  C  C1  1  0.00000000  0.00000000  0.50000000  1
  C  C2  1  0.93645400  0.15150100  0.75000000  1
  C  C3  1  0.43645400  0.34849900  0.25000000  1
  C  C4  1  0.50000000  0.50000000  0.00000000  1
  C  C5  1  0.50000000  0.50000000  0.50000000  1
  C  C6  1  0.56354600  0.65150100  0.75000000  1
  C  C7  1  0.06354600  0.84849900  0.25000000  1
  C  C8  1  0.60287200  0.04569000  0.56290000  1
  C  C9  1  0.60287200  0.04569000  0.93710000  1
  C  C10  1  0.59821100  0.08578700  0.70306600  1
  C  C11  1  0.59821100  0.08578700  0.79693400  1
  C  C12  1  0.26181000  0.15395300  0.16551800  1
  C  C13  1  0.26181000  0.15395300  0.33448200  1
  C  C14  1  0.73584100  0.20145100  0.20590300  1
  C  C15  1  0.73584100  0.20145100  0.29409700  1
  C  C16  1  0.39728100  0.23306000  0.10933800  1
  C  C17  1  0.39728100  0.23306000  0.39066200  1
  C  C18  1  0.89728100  0.26694000  0.60933800  1
  C  C19  1  0.89728100  0.26694000  0.89066200  1
  C  C20  1  0.23584100  0.29854900  0.79409700  1
  C  C21  1  0.23584100  0.29854900  0.70590300  1
  C  C22  1  0.76181000  0.34604700  0.83448200  1
  C  C23  1  0.76181000  0.34604700  0.66551800  1
  C  C24  1  0.09821100  0.41421300  0.29693400  1
  C  C25  1  0.09821100  0.41421300  0.20306600  1
  C  C26  1  0.10287200  0.45431000  0.06290000  1
  C  C27  1  0.10287200  0.45431000  0.43710000  1
  C  C28  1  0.89712800  0.54569000  0.56290000  1
  C  C29  1  0.89712800  0.54569000  0.93710000  1
  C  C30  1  0.90178900  0.58578700  0.70306600  1
  C  C31  1  0.90178900  0.58578700  0.79693400  1
  C  C32  1  0.23819000  0.65395300  0.16551800  1
  C  C33  1  0.23819000  0.65395300  0.33448200  1
  C  C34  1  0.76415900  0.70145100  0.20590300  1
  C  C35  1  0.76415900  0.70145100  0.29409700  1
  C  C36  1  0.10271900  0.73306000  0.10933800  1
  C  C37  1  0.10271900  0.73306000  0.39066200  1
  C  C38  1  0.60271900  0.76694000  0.60933800  1
  C  C39  1  0.60271900  0.76694000  0.89066200  1
  C  C40  1  0.26415900  0.79854900  0.70590300  1
  C  C41  1  0.26415900  0.79854900  0.79409700  1
  C  C42  1  0.73819000  0.84604700  0.66551800  1
  C  C43  1  0.73819000  0.84604700  0.83448200  1
  C  C44  1  0.40178900  0.91421300  0.20306600  1
  C  C45  1  0.40178900  0.91421300  0.29693400  1
  C  C46  1  0.39712800  0.95431000  0.06290000  1
  C  C47  1  0.39712800  0.95431000  0.43710000  1
  C  C48  1  0.34208700  0.18487700  0.55137700  1
  C  C49  1  0.34208700  0.18487700  0.94862300  1
  C  C50  1  0.84208700  0.31512300  0.05137700  1
  C  C51  1  0.84208700  0.31512300  0.44862300  1
  C  C52  1  0.15791300  0.68487700  0.55137700  1
  C  C53  1  0.15791300  0.68487700  0.94862300  1
  C  C54  1  0.65791300  0.81512300  0.05137700  1
  C  C55  1  0.65791300  0.81512300  0.44862300  1
  Ni  Ni56  1  0.97889100  0.02449100  0.14885000  1
  Ni  Ni57  1  0.97889100  0.02449100  0.35115000  1
  Ni  Ni58  1  0.47889100  0.47550900  0.85115000  1
  Ni  Ni59  1  0.47889100  0.47550900  0.64885000  1
  Ni  Ni60  1  0.52110900  0.52449100  0.14885000  1
  Ni  Ni61  1  0.52110900  0.52449100  0.35115000  1
  Ni  Ni62  1  0.02110900  0.97550900  0.64885000  1
  Ni  Ni63  1  0.02110900  0.97550900  0.85115000  1
  Cu  Cu64  1  0.27087300  0.04353500  0.00293400  1
  Cu  Cu65  1  0.27087300  0.04353500  0.49706600  1
  Cu  Cu66  1  0.67325900  0.08338500  0.75000000  1
  Cu  Cu67  1  0.53123500  0.10669900  0.60036800  1
  Cu  Cu68  1  0.53123500  0.10669900  0.89963200  1
  Cu  Cu69  1  0.37985600  0.20100800  0.16379200  1
  Cu  Cu70  1  0.37985600  0.20100800  0.33620800  1
  Cu  Cu71  1  0.94747300  0.21537500  0.51808300  1
  Cu  Cu72  1  0.94747300  0.21537500  0.98191700  1
  Cu  Cu73  1  0.20776000  0.23777300  0.75000000  1
  Cu  Cu74  1  0.70776000  0.26222700  0.25000000  1
  Cu  Cu75  1  0.44747300  0.28462500  0.01808300  1
  Cu  Cu76  1  0.44747300  0.28462500  0.48191700  1
  Cu  Cu77  1  0.87985700  0.29899200  0.83620800  1
  Cu  Cu78  1  0.87985700  0.29899200  0.66379200  1
  Cu  Cu79  1  0.03123500  0.39330100  0.10036800  1
  Cu  Cu80  1  0.03123500  0.39330100  0.39963200  1
  Cu  Cu81  1  0.17325900  0.41661500  0.25000000  1
  Cu  Cu82  1  0.77087300  0.45646500  0.99706600  1
  Cu  Cu83  1  0.77087300  0.45646500  0.50293400  1
  Cu  Cu84  1  0.22912700  0.54353500  0.00293400  1
  Cu  Cu85  1  0.22912700  0.54353500  0.49706600  1
  Cu  Cu86  1  0.82674100  0.58338500  0.75000000  1
  Cu  Cu87  1  0.96876500  0.60669900  0.60036800  1
  Cu  Cu88  1  0.96876500  0.60669900  0.89963200  1
  Cu  Cu89  1  0.12014400  0.70100800  0.16379200  1
  Cu  Cu90  1  0.12014400  0.70100800  0.33620800  1
  Cu  Cu91  1  0.55252700  0.71537500  0.51808300  1
  Cu  Cu92  1  0.55252700  0.71537500  0.98191700  1
  Cu  Cu93  1  0.29224000  0.73777300  0.75000000  1
  Cu  Cu94  1  0.79224000  0.76222700  0.25000000  1
  Cu  Cu95  1  0.05252700  0.78462500  0.01808300  1
  Cu  Cu96  1  0.05252700  0.78462500  0.48191700  1
  Cu  Cu97  1  0.62014300  0.79899200  0.66379200  1
  Cu  Cu98  1  0.62014300  0.79899200  0.83620800  1
  Cu  Cu99  1  0.46876500  0.89330100  0.10036800  1
  Cu  Cu100  1  0.46876500  0.89330100  0.39963200  1
  Cu  Cu101  1  0.32674100  0.91661500  0.25000000  1
  Cu  Cu102  1  0.72912700  0.95646500  0.50293400  1
  Cu  Cu103  1  0.72912700  0.95646500  0.99706600  1
