# generated using pymatgen
data_CuNi3C10
_symmetry_space_group_name_H-M   'P 1'
_cell_length_a   5.91756034
_cell_length_b   5.91756034
_cell_length_c   5.91755988
_cell_angle_alpha   59.85601799
_cell_angle_beta   59.85601799
_cell_angle_gamma   59.85602514
_symmetry_Int_Tables_number   1
_chemical_formula_structural   CuNi3C10
_chemical_formula_sum   'Cu1 Ni3 C10'
_cell_volume   146.04670060
_cell_formula_units_Z   1
loop_
 _symmetry_equiv_pos_site_id
 _symmetry_equiv_pos_as_xyz
  1  'x, y, z'
loop_
 _atom_site_type_symbol
 _atom_site_label
 _atom_site_symmetry_multiplicity
 _atom_site_fract_x
 _atom_site_fract_y
 _atom_site_fract_z
 _atom_site_occupancy
  C  C0  1  0.12681500  0.12681500  0.12681500  1
  C  C1  1  0.87318500  0.87318500  0.87318500  1
  Ni  Ni2  1  0.00000000  0.50000000  0.50000000  1
  Ni  Ni3  1  0.50000000  0.50000000  0.00000000  1
  Ni  Ni4  1  0.50000000  0.00000000  0.50000000  1
  Cu  Cu5  1  0.50000000  0.50000000  0.50000000  1
  C  C6  1  0.26086300  0.26086300  0.26086300  1
  C  C7  1  0.25556300  0.70742800  0.25556300  1
  C  C8  1  0.25556300  0.25556300  0.70742800  1
  C  C9  1  0.70742800  0.25556300  0.25556300  1
  C  C10  1  0.29257200  0.74443700  0.74443700  1
  C  C11  1  0.74443700  0.74443700  0.29257200  1
  C  C12  1  0.74443700  0.29257200  0.74443700  1
  C  C13  1  0.73913700  0.73913700  0.73913700  1
