# generated using pymatgen
data_Cu(Ni2C7)3
_symmetry_space_group_name_H-M   'P 1'
_cell_length_a   5.97180000
_cell_length_b   5.95629400
_cell_length_c   8.45482215
_cell_angle_alpha   89.67128089
_cell_angle_beta   90.00000000
_cell_angle_gamma   90.00000000
_symmetry_Int_Tables_number   1
_chemical_formula_structural   Cu(Ni2C7)3
_chemical_formula_sum   'Cu1 Ni6 C21'
_cell_volume   300.73135386
_cell_formula_units_Z   1
loop_
 _symmetry_equiv_pos_site_id
 _symmetry_equiv_pos_as_xyz
  1  'x, y, z'
loop_
 _atom_site_type_symbol
 _atom_site_label
 _atom_site_symmetry_multiplicity
 _atom_site_fract_x
 _atom_site_fract_y
 _atom_site_fract_z
 _atom_site_occupancy
  C  C0  1  0.50000000  0.50256300  0.99869000  1
  C  C1  1  0.00000000  0.75997100  0.11772300  1
  C  C2  1  0.00000000  0.99524900  0.50159100  1
  C  C3  1  0.50000000  0.26289000  0.62230600  1
  C  C4  1  0.00000000  0.23415300  0.87901700  1
  Ni  Ni5  1  0.50000000  0.00638800  0.99181000  1
  Ni  Ni6  1  0.75873400  0.24850500  0.24646100  1
  Ni  Ni7  1  0.24126600  0.24850500  0.24646100  1
  Ni  Ni8  1  0.00000000  0.47864000  0.50528100  1
  Ni  Ni9  1  0.24861600  0.74852500  0.75837300  1
  Ni  Ni10  1  0.75138400  0.74852500  0.75837300  1
  Cu  Cu11  1  0.50000000  0.73718700  0.38417600  1
  C  C12  1  0.72618500  0.23582100  0.02320000  1
  C  C13  1  0.27381500  0.23582100  0.02320000  1
  C  C14  1  0.50000000  0.01139700  0.24772700  1
  C  C15  1  0.50000000  0.47591600  0.25184000  1
  C  C16  1  0.00000000  0.47691500  0.25809800  1
  C  C17  1  0.00000000  0.03849800  0.25228600  1
  C  C18  1  0.77054700  0.26868000  0.48080900  1
  C  C19  1  0.22945300  0.26868000  0.48080900  1
  C  C20  1  0.23733500  0.73786400  0.50971200  1
  C  C21  1  0.76266500  0.73786400  0.50971200  1
  C  C22  1  0.00000000  0.95759800  0.74279600  1
  C  C23  1  0.00000000  0.51870700  0.73709900  1
  C  C24  1  0.50000000  0.98455700  0.76232400  1
  C  C25  1  0.50000000  0.54183000  0.74970800  1
  C  C26  1  0.27059600  0.76937400  0.98020800  1
  C  C27  1  0.72940400  0.76937400  0.98020800  1
