# generated using pymatgen
data_CuNi3
_symmetry_space_group_name_H-M   'P 1'
_cell_length_a   5.33741100
_cell_length_b   5.33741100
_cell_length_c   5.33741100
_cell_angle_alpha   90.00000000
_cell_angle_beta   90.00000000
_cell_angle_gamma   90.00000000
_symmetry_Int_Tables_number   1
_chemical_formula_structural   CuNi3
_chemical_formula_sum   'Cu4 Ni12'
_cell_volume   152.05193070
_cell_formula_units_Z   4
loop_
 _symmetry_equiv_pos_site_id
 _symmetry_equiv_pos_as_xyz
  1  'x, y, z'
loop_
 _atom_site_type_symbol
 _atom_site_label
 _atom_site_symmetry_multiplicity
 _atom_site_fract_x
 _atom_site_fract_y
 _atom_site_fract_z
 _atom_site_occupancy
  Ni  Ni0  1  0.02640300  0.50496600  0.29724100  1
  Ni  Ni1  1  0.99503400  0.70275900  0.52640300  1
  Ni  Ni2  1  0.20275900  0.97359700  0.00496600  1
  Ni  Ni3  1  0.29724100  0.02640300  0.50496600  1
  Ni  Ni4  1  0.50496600  0.29724100  0.02640300  1
  Ni  Ni5  1  0.47359700  0.49503400  0.79724100  1
  Ni  Ni6  1  0.52640300  0.99503400  0.70275900  1
  Ni  Ni7  1  0.49503400  0.79724100  0.47359700  1
  Ni  Ni8  1  0.70275900  0.52640300  0.99503400  1
  Ni  Ni9  1  0.79724100  0.47359700  0.49503400  1
  Ni  Ni10  1  0.00496600  0.20275900  0.97359700  1
  Ni  Ni11  1  0.97359700  0.00496600  0.20275900  1
  Cu  Cu12  1  0.10472500  0.10472500  0.10472500  1
  Cu  Cu13  1  0.39527500  0.89527500  0.60472500  1
  Cu  Cu14  1  0.60472500  0.39527500  0.89527500  1
  Cu  Cu15  1  0.89527500  0.60472500  0.39527500  1
