# generated using pymatgen
data_Cu4NiC14
_symmetry_space_group_name_H-M   'P 1'
_cell_length_a   5.77417300
_cell_length_b   6.52894875
_cell_length_c   10.01665914
_cell_angle_alpha   96.97779885
_cell_angle_beta   106.71664821
_cell_angle_gamma   102.78339878
_symmetry_Int_Tables_number   1
_chemical_formula_structural   Cu4NiC14
_chemical_formula_sum   'Cu8 Ni2 C28'
_cell_volume   345.70007333
_cell_formula_units_Z   2
loop_
 _symmetry_equiv_pos_site_id
 _symmetry_equiv_pos_as_xyz
  1  'x, y, z'
loop_
 _atom_site_type_symbol
 _atom_site_label
 _atom_site_symmetry_multiplicity
 _atom_site_fract_x
 _atom_site_fract_y
 _atom_site_fract_z
 _atom_site_occupancy
  C  C0  1  0.79661200  0.29094100  0.20535900  1
  C  C1  1  0.69690500  0.70985500  0.79573000  1
  C  C2  1  0.50000000  0.50000000  0.00000000  1
  C  C3  1  0.89275500  0.90934200  0.59541700  1
  C  C4  1  0.30309500  0.29014500  0.20427000  1
  C  C5  1  0.20338800  0.70905900  0.79464100  1
  C  C6  1  0.00000000  0.50000000  0.00000000  1
  C  C7  1  0.10724500  0.09065800  0.40458300  1
  Ni  Ni8  1  0.50000000  0.50000000  0.50000000  1
  Ni  Ni9  1  0.00000000  0.50000000  0.50000000  1
  Cu  Cu10  1  0.79385500  0.28769200  0.69647100  1
  Cu  Cu11  1  0.59565300  0.09420400  0.89670700  1
  Cu  Cu12  1  0.69938300  0.70367400  0.29677100  1
  Cu  Cu13  1  0.40434700  0.90579600  0.10329300  1
  Cu  Cu14  1  0.30061700  0.29632600  0.70322900  1
  Cu  Cu15  1  0.09987900  0.09700300  0.90313300  1
  Cu  Cu16  1  0.20614500  0.71230800  0.30352900  1
  Cu  Cu17  1  0.90012100  0.90299700  0.09686700  1
  C  C18  1  0.78252700  0.01230300  0.77037800  1
  C  C19  1  0.83964500  0.58620400  0.63575500  1
  C  C20  1  0.76473900  0.99283500  0.23102200  1
  C  C21  1  0.62803700  0.36731700  0.84548200  1
  C  C22  1  0.84929900  0.63188300  0.14999900  1
  C  C23  1  0.43104900  0.17442400  0.04269800  1
  C  C24  1  0.23526100  0.00716500  0.76897800  1
  C  C25  1  0.33966800  0.59309700  0.63492800  1
  C  C26  1  0.66033200  0.40690300  0.36507200  1
  C  C27  1  0.56895100  0.82557600  0.95730200  1
  C  C28  1  0.44278400  0.23349600  0.55999700  1
  C  C29  1  0.21747300  0.98769700  0.22962200  1
  C  C30  1  0.37196300  0.63268300  0.15451800  1
  C  C31  1  0.15070100  0.36811700  0.85000100  1
  C  C32  1  0.55721600  0.76650400  0.44000300  1
  C  C33  1  0.95321600  0.17742300  0.04397400  1
  C  C34  1  0.16035500  0.41379600  0.36424500  1
  C  C35  1  0.04678400  0.82257700  0.95602600  1
  C  C36  1  0.98304500  0.22935800  0.56022100  1
  C  C37  1  0.01695500  0.77064200  0.43977900  1
