# generated using pymatgen
data_Cu6NiC33
_symmetry_space_group_name_H-M   'P 1'
_cell_length_a   8.42951000
_cell_length_b   8.50647583
_cell_length_c   8.50767558
_cell_angle_alpha   62.65325080
_cell_angle_beta   62.94406807
_cell_angle_gamma   62.88625693
_symmetry_Int_Tables_number   1
_chemical_formula_structural   Cu6NiC33
_chemical_formula_sum   'Cu6 Ni1 C33'
_cell_volume   458.47910107
_cell_formula_units_Z   1
loop_
 _symmetry_equiv_pos_site_id
 _symmetry_equiv_pos_as_xyz
  1  'x, y, z'
loop_
 _atom_site_type_symbol
 _atom_site_label
 _atom_site_symmetry_multiplicity
 _atom_site_fract_x
 _atom_site_fract_y
 _atom_site_fract_z
 _atom_site_occupancy
  C  C0  1  0.25472300  0.64090700  0.85601700  1
  C  C1  1  0.70651300  0.36167600  0.15406200  1
  C  C2  1  0.36863100  0.14928900  0.70327000  1
  C  C3  1  0.14925000  0.70102800  0.36711700  1
  C  C4  1  0.98874500  0.99604900  0.99729300  1
  C  C5  1  0.64331900  0.64766200  0.64593700  1
  C  C6  1  0.50842600  0.50138900  0.50067100  1
  C  C7  1  0.85760200  0.85347900  0.85267200  1
  C  C8  1  0.35435100  0.35079500  0.35125000  1
  Ni  Ni9  1  0.14614100  0.14888800  0.15110900  1
  Cu  Cu10  1  0.94089700  0.55875600  0.25691100  1
  Cu  Cu11  1  0.56126600  0.25015100  0.94520900  1
  Cu  Cu12  1  0.25345600  0.94644700  0.55852900  1
  Cu  Cu13  1  0.74991400  0.04653300  0.45736700  1
  Cu  Cu14  1  0.44760000  0.74795300  0.04401400  1
  Cu  Cu15  1  0.05680700  0.46009800  0.75197000  1
  C  C16  1  0.52406300  0.31389000  0.10384300  1
  C  C17  1  0.31728700  0.10459000  0.52140300  1
  C  C18  1  0.10168200  0.51735100  0.32241900  1
  C  C19  1  0.93985400  0.74372800  0.09185600  1
  C  C20  1  0.97608400  0.39783100  0.18916000  1
  C  C21  1  0.74890600  0.56845400  0.40840100  1
  C  C22  1  0.75212600  0.09617000  0.92523300  1
  C  C23  1  0.55134900  0.41302900  0.75996500  1
  C  C24  1  0.83414400  0.00778400  0.59838500  1
  C  C25  1  0.40004800  0.74886900  0.57236500  1
  C  C26  1  0.89510100  0.08559600  0.24437200  1
  C  C27  1  0.60452000  0.82052400  0.98495600  1
  C  C28  1  0.39967200  0.17853800  0.98572400  1
  C  C29  1  0.10246200  0.92469700  0.75433300  1
  C  C30  1  0.59100900  0.24357700  0.44505100  1
  C  C31  1  0.18655100  0.98198400  0.39813000  1
  C  C32  1  0.44452800  0.58888000  0.23885300  1
  C  C33  1  0.23924700  0.89799500  0.08949400  1
  C  C34  1  0.24871100  0.44152600  0.58741900  1
  C  C35  1  0.04798500  0.59697500  0.82628300  1
  C  C36  1  0.08454900  0.24969400  0.89824900  1
  C  C37  1  0.88720300  0.50815000  0.70234200  1
  C  C38  1  0.68681200  0.89424800  0.48411400  1
  C  C39  1  0.44845900  0.69181600  0.89725300  1
