# generated using pymatgen
data_Cu13Ni10
_symmetry_space_group_name_H-M   'P 1'
_cell_length_a   15.65612800
_cell_length_b   7.33463500
_cell_length_c   16.60658289
_cell_angle_alpha   65.25736117
_cell_angle_beta   90.00000000
_cell_angle_gamma   90.00000000
_symmetry_Int_Tables_number   1
_chemical_formula_structural   Cu13Ni10
_chemical_formula_sum   'Cu104 Ni80'
_cell_volume   1731.90150055
_cell_formula_units_Z   8
loop_
 _symmetry_equiv_pos_site_id
 _symmetry_equiv_pos_as_xyz
  1  'x, y, z'
loop_
 _atom_site_type_symbol
 _atom_site_label
 _atom_site_symmetry_multiplicity
 _atom_site_fract_x
 _atom_site_fract_y
 _atom_site_fract_z
 _atom_site_occupancy
  Ni  Ni0  1  0.91820900  0.21382900  0.15805600  1
  Ni  Ni1  1  0.58179100  0.21382900  0.65805600  1
  Ni  Ni2  1  0.08179100  0.78617100  0.84194400  1
  Ni  Ni3  1  0.41820900  0.78617100  0.34194400  1
  Ni  Ni4  1  0.95669800  0.31461100  0.23304500  1
  Ni  Ni5  1  0.54330200  0.31461100  0.73304500  1
  Ni  Ni6  1  0.04330200  0.68538900  0.76695500  1
  Ni  Ni7  1  0.45669800  0.68538900  0.26695500  1
  Ni  Ni8  1  0.02241700  0.32409200  0.14485700  1
  Ni  Ni9  1  0.47758300  0.32409200  0.64485700  1
  Ni  Ni10  1  0.97758300  0.67590800  0.85514300  1
  Ni  Ni11  1  0.52241700  0.67590800  0.35514300  1
  Ni  Ni12  1  0.00377500  0.13085300  0.10948900  1
  Ni  Ni13  1  0.49622500  0.13085300  0.60948900  1
  Ni  Ni14  1  0.99622500  0.86914700  0.89051100  1
  Ni  Ni15  1  0.50377500  0.86914700  0.39051100  1
  Ni  Ni16  1  0.90523200  0.07560900  0.27348800  1
  Ni  Ni17  1  0.59476800  0.07560900  0.77348800  1
  Ni  Ni18  1  0.09476800  0.92439100  0.72651200  1
  Ni  Ni19  1  0.40523200  0.92439100  0.22651200  1
  Ni  Ni20  1  0.99029800  0.12769300  0.33200600  1
  Ni  Ni21  1  0.50970200  0.12769300  0.83200600  1
  Ni  Ni22  1  0.00970200  0.87230700  0.66799400  1
  Ni  Ni23  1  0.49029800  0.87230700  0.16799400  1
  Ni  Ni24  1  0.06812300  0.25653900  0.24967700  1
  Ni  Ni25  1  0.43187700  0.25653900  0.74967700  1
  Ni  Ni26  1  0.93187700  0.74346100  0.75032300  1
  Ni  Ni27  1  0.56812300  0.74346100  0.25032300  1
  Ni  Ni28  1  0.09874800  0.13432100  0.16888600  1
  Ni  Ni29  1  0.40125200  0.13432100  0.66888600  1
  Ni  Ni30  1  0.90125200  0.86567900  0.83111400  1
  Ni  Ni31  1  0.59874800  0.86567900  0.33111400  1
  Ni  Ni32  1  0.04664600  0.90735100  0.18401500  1
  Ni  Ni33  1  0.45335400  0.90735100  0.68401500  1
  Ni  Ni34  1  0.95335400  0.09264900  0.81598500  1
  Ni  Ni35  1  0.54664600  0.09264900  0.31598500  1
  Ni  Ni36  1  0.93626500  0.95418700  0.19229100  1
  Ni  Ni37  1  0.56373500  0.95418700  0.69229100  1
  Ni  Ni38  1  0.06373500  0.04581300  0.80770900  1
  Ni  Ni39  1  0.43626500  0.04581300  0.30770900  1
  Ni  Ni40  1  0.73236300  0.17754700  0.10182100  1
  Ni  Ni41  1  0.76763700  0.17754700  0.60182100  1
  Ni  Ni42  1  0.26763700  0.82245300  0.89817900  1
  Ni  Ni43  1  0.23236300  0.82245300  0.39817900  1
  Ni  Ni44  1  0.72721100  0.37915000  0.13439000  1
  Ni  Ni45  1  0.77278900  0.37915000  0.63439000  1
  Ni  Ni46  1  0.27278900  0.62085000  0.86561000  1
  Ni  Ni47  1  0.22721100  0.62085000  0.36561000  1
  Ni  Ni48  1  0.64429400  0.34536200  0.06918100  1
  Ni  Ni49  1  0.85570600  0.34536200  0.56918100  1
  Ni  Ni50  1  0.35570600  0.65463800  0.93081900  1
  Ni  Ni51  1  0.14429400  0.65463800  0.43081900  1
  Ni  Ni52  1  0.67585500  0.22222500  0.00216400  1
  Ni  Ni53  1  0.82414500  0.22222500  0.50216400  1
  Ni  Ni54  1  0.32414500  0.77777500  0.99783600  1
  Ni  Ni55  1  0.17585500  0.77777500  0.49783600  1
  Ni  Ni56  1  0.82633800  0.31280700  0.09814000  1
  Ni  Ni57  1  0.67366200  0.31280700  0.59814000  1
  Ni  Ni58  1  0.17366200  0.68719300  0.90186000  1
  Ni  Ni59  1  0.32633800  0.68719300  0.40186000  1
  Ni  Ni60  1  0.79471200  0.56833500  0.06957800  1
  Ni  Ni61  1  0.70528800  0.56833500  0.56957800  1
  Ni  Ni62  1  0.20528800  0.43166500  0.93042200  1
  Ni  Ni63  1  0.29471200  0.43166500  0.43042200  1
  Ni  Ni64  1  0.68408100  0.58693800  0.04123400  1
  Ni  Ni65  1  0.81591900  0.58693800  0.54123400  1
  Ni  Ni66  1  0.31591900  0.41306200  0.95876600  1
  Ni  Ni67  1  0.18408100  0.41306200  0.45876600  1
  Ni  Ni68  1  0.64981200  0.48324800  0.95413100  1
  Ni  Ni69  1  0.85018800  0.48324800  0.45413100  1
  Ni  Ni70  1  0.35018800  0.51675200  0.04586900  1
  Ni  Ni71  1  0.14981200  0.51675200  0.54586900  1
  Ni  Ni72  1  0.73307500  0.38270500  0.91167600  1
  Ni  Ni73  1  0.76692500  0.38270500  0.41167600  1
  Ni  Ni74  1  0.26692500  0.61729500  0.08832400  1
  Ni  Ni75  1  0.23307500  0.61729500  0.58832400  1
  Ni  Ni76  1  0.78949600  0.21336000  0.00613000  1
  Ni  Ni77  1  0.71050400  0.21336000  0.50613000  1
  Ni  Ni78  1  0.21050400  0.78664000  0.99387000  1
  Ni  Ni79  1  0.28949600  0.78664000  0.49387000  1
  Cu  Cu80  1  0.92590000  0.46469900  0.23190400  1
  Cu  Cu81  1  0.57410000  0.46469900  0.73190400  1
  Cu  Cu82  1  0.07410000  0.53530100  0.76809600  1
  Cu  Cu83  1  0.42590000  0.53530100  0.26809600  1
  Cu  Cu84  1  0.04330300  0.48571900  0.09073200  1
  Cu  Cu85  1  0.45669700  0.48571900  0.59073200  1
  Cu  Cu86  1  0.95669700  0.51428100  0.90926800  1
  Cu  Cu87  1  0.54330300  0.51428100  0.40926800  1
  Cu  Cu88  1  0.00300500  0.16867400  0.03209500  1
  Cu  Cu89  1  0.49699500  0.16867400  0.53209500  1
  Cu  Cu90  1  0.99699500  0.83132600  0.96790500  1
  Cu  Cu91  1  0.50300500  0.83132600  0.46790500  1
  Cu  Cu92  1  0.83685800  0.03366400  0.30781300  1
  Cu  Cu93  1  0.66314200  0.03366400  0.80781300  1
  Cu  Cu94  1  0.16314200  0.96633600  0.69218700  1
  Cu  Cu95  1  0.33685800  0.96633600  0.19218700  1
  Cu  Cu96  1  0.95823100  0.95488100  0.33549600  1
  Cu  Cu97  1  0.54176900  0.95488100  0.83549600  1
  Cu  Cu98  1  0.04176900  0.04511900  0.66450400  1
  Cu  Cu99  1  0.45823100  0.04511900  0.16450400  1
  Cu  Cu100  1  0.98752600  0.11429700  0.40590900  1
  Cu  Cu101  1  0.51247400  0.11429700  0.90590900  1
  Cu  Cu102  1  0.01247400  0.88570300  0.59409100  1
  Cu  Cu103  1  0.48752600  0.88570300  0.09409100  1
  Cu  Cu104  1  0.12207600  0.35419900  0.26365200  1
  Cu  Cu105  1  0.37792400  0.35419900  0.76365200  1
  Cu  Cu106  1  0.87792400  0.64580100  0.73634800  1
  Cu  Cu107  1  0.62207600  0.64580100  0.23634800  1
  Cu  Cu108  1  0.07086400  0.08126000  0.31932400  1
  Cu  Cu109  1  0.42913600  0.08126000  0.81932400  1
  Cu  Cu110  1  0.92913600  0.91874000  0.68067600  1
  Cu  Cu111  1  0.57086400  0.91874000  0.18067600  1
  Cu  Cu112  1  0.16979100  0.16336900  0.14025900  1
  Cu  Cu113  1  0.33020900  0.16336900  0.64025900  1
  Cu  Cu114  1  0.83020900  0.83663100  0.85974100  1
  Cu  Cu115  1  0.66979100  0.83663100  0.35974100  1
  Cu  Cu116  1  0.10246100  0.95370900  0.23460100  1
  Cu  Cu117  1  0.39753900  0.95370900  0.73460100  1
  Cu  Cu118  1  0.89753900  0.04629100  0.76539900  1
  Cu  Cu119  1  0.60246100  0.04629100  0.26539900  1
  Cu  Cu120  1  0.07694000  0.76927800  0.17396400  1
  Cu  Cu121  1  0.42306000  0.76927800  0.67396400  1
  Cu  Cu122  1  0.92306000  0.23072200  0.82603600  1
  Cu  Cu123  1  0.57694000  0.23072200  0.32603600  1
  Cu  Cu124  1  0.88536500  0.84336500  0.18341700  1
  Cu  Cu125  1  0.61463500  0.84336500  0.68341700  1
  Cu  Cu126  1  0.11463500  0.15663500  0.81658300  1
  Cu  Cu127  1  0.38536500  0.15663500  0.31658300  1
  Cu  Cu128  1  0.99101400  0.83050600  0.25105400  1
  Cu  Cu129  1  0.50898600  0.83050600  0.75105400  1
  Cu  Cu130  1  0.00898600  0.16949400  0.74894600  1
  Cu  Cu131  1  0.49101400  0.16949400  0.24894600  1
  Cu  Cu132  1  0.71377500  0.34826000  0.20984000  1
  Cu  Cu133  1  0.78622500  0.34826000  0.70984000  1
  Cu  Cu134  1  0.28622500  0.65174000  0.79016000  1
  Cu  Cu135  1  0.21377500  0.65174000  0.29016000  1
  Cu  Cu136  1  0.73177000  0.00885000  0.15754400  1
  Cu  Cu137  1  0.76823000  0.00885000  0.65754400  1
  Cu  Cu138  1  0.26823000  0.99115000  0.84245600  1
  Cu  Cu139  1  0.23177000  0.99115000  0.34245600  1
  Cu  Cu140  1  0.57314800  0.31466100  0.09876900  1
  Cu  Cu141  1  0.92685200  0.31466100  0.59876900  1
  Cu  Cu142  1  0.42685200  0.68533900  0.90123100  1
  Cu  Cu143  1  0.07314800  0.68533900  0.40123100  1
  Cu  Cu144  1  0.63164300  0.09273300  0.99931100  1
  Cu  Cu145  1  0.86835700  0.09273300  0.49931100  1
  Cu  Cu146  1  0.36835700  0.90726700  0.00068900  1
  Cu  Cu147  1  0.13164300  0.90726700  0.50068900  1
  Cu  Cu148  1  0.84973200  0.48657100  0.03205500  1
  Cu  Cu149  1  0.65026800  0.48657100  0.53205500  1
  Cu  Cu150  1  0.15026800  0.51342900  0.96794500  1
  Cu  Cu151  1  0.34973200  0.51342900  0.46794500  1
  Cu  Cu152  1  0.83367800  0.68992100  0.08457100  1
  Cu  Cu153  1  0.66632200  0.68992100  0.58457100  1
  Cu  Cu154  1  0.16632200  0.31007900  0.91542900  1
  Cu  Cu155  1  0.33367800  0.31007900  0.41542900  1
  Cu  Cu156  1  0.64319200  0.72261800  0.04282500  1
  Cu  Cu157  1  0.85680800  0.72261800  0.54282500  1
  Cu  Cu158  1  0.35680800  0.27738200  0.95717500  1
  Cu  Cu159  1  0.14319200  0.27738200  0.45717500  1
  Cu  Cu160  1  0.75242400  0.67323500  0.99365800  1
  Cu  Cu161  1  0.74757600  0.67323500  0.49365800  1
  Cu  Cu162  1  0.24757600  0.32676500  0.00634200  1
  Cu  Cu163  1  0.25242400  0.32676500  0.50634200  1
  Cu  Cu164  1  0.58954000  0.56069400  0.90893000  1
  Cu  Cu165  1  0.91046000  0.56069400  0.40893000  1
  Cu  Cu166  1  0.41046000  0.43930600  0.09107000  1
  Cu  Cu167  1  0.08954000  0.43930600  0.59107000  1
  Cu  Cu168  1  0.71679900  0.56921900  0.90411600  1
  Cu  Cu169  1  0.78320100  0.56921900  0.40411600  1
  Cu  Cu170  1  0.28320100  0.43078100  0.09588400  1
  Cu  Cu171  1  0.21679900  0.43078100  0.59588400  1
  Cu  Cu172  1  0.73906100  0.39694500  0.83781500  1
  Cu  Cu173  1  0.76093900  0.39694500  0.33781500  1
  Cu  Cu174  1  0.26093900  0.60305500  0.16218500  1
  Cu  Cu175  1  0.23906100  0.60305500  0.66218500  1
  Cu  Cu176  1  0.83424800  0.08912400  0.99933800  1
  Cu  Cu177  1  0.66575200  0.08912400  0.49933800  1
  Cu  Cu178  1  0.16575200  0.91087600  0.00066200  1
  Cu  Cu179  1  0.33424800  0.91087600  0.50066200  1
  Cu  Cu180  1  0.81309900  0.38509800  0.94040100  1
  Cu  Cu181  1  0.68690100  0.38509800  0.44040100  1
  Cu  Cu182  1  0.18690100  0.61490200  0.05959900  1
  Cu  Cu183  1  0.31309900  0.61490200  0.55959900  1
