# generated using pymatgen
data_Cu6Ni8C27
_symmetry_space_group_name_H-M   'P 1'
_cell_length_a   11.84871600
_cell_length_b   9.89966400
_cell_length_c   10.79176593
_cell_angle_alpha   69.68091252
_cell_angle_beta   90.00000000
_cell_angle_gamma   90.00000000
_symmetry_Int_Tables_number   1
_chemical_formula_structural   Cu6Ni8C27
_chemical_formula_sum   'Cu12 Ni16 C54'
_cell_volume   1187.08584779
_cell_formula_units_Z   2
loop_
 _symmetry_equiv_pos_site_id
 _symmetry_equiv_pos_as_xyz
  1  'x, y, z'
loop_
 _atom_site_type_symbol
 _atom_site_label
 _atom_site_symmetry_multiplicity
 _atom_site_fract_x
 _atom_site_fract_y
 _atom_site_fract_z
 _atom_site_occupancy
  C  C0  1  0.50000000  0.50000000  0.50000000  1
  C  C1  1  0.00000000  0.00000000  0.50000000  1
  C  C2  1  0.70976000  0.10994300  0.06567400  1
  C  C3  1  0.20976000  0.39005700  0.93432600  1
  C  C4  1  0.29024000  0.89005700  0.93432600  1
  C  C5  1  0.79024000  0.60994300  0.06567400  1
  C  C6  1  0.78527000  0.92761600  0.57671900  1
  C  C7  1  0.28527000  0.57238400  0.42328100  1
  C  C8  1  0.21473000  0.07238400  0.42328100  1
  C  C9  1  0.71473000  0.42761600  0.57671900  1
  C  C10  1  0.68350100  0.91698200  0.92406300  1
  C  C11  1  0.18350100  0.58301800  0.07593700  1
  C  C12  1  0.31649900  0.08301800  0.07593700  1
  C  C13  1  0.81649900  0.41698200  0.92406300  1
  C  C14  1  0.56710300  0.55961500  0.07710400  1
  C  C15  1  0.06710300  0.94038500  0.92289600  1
  C  C16  1  0.43289700  0.44038500  0.92289600  1
  C  C17  1  0.93289700  0.05961500  0.07710400  1
  C  C18  1  0.41436600  0.86547400  0.00046300  1
  C  C19  1  0.91436600  0.63452600  0.99953700  1
  C  C20  1  0.58563400  0.13452600  0.99953700  1
  C  C21  1  0.08563400  0.36547400  0.00046300  1
  C  C22  1  0.39337300  0.56742900  0.97975400  1
  C  C23  1  0.89337300  0.93257100  0.02024600  1
  C  C24  1  0.60662700  0.43257100  0.02024600  1
  C  C25  1  0.10662700  0.06742900  0.97975400  1
  C  C26  1  0.87305300  0.44148000  0.45281000  1
  C  C27  1  0.37305300  0.05852000  0.54719000  1
  C  C28  1  0.12694700  0.55852000  0.54719000  1
  C  C29  1  0.62694700  0.94148000  0.45281000  1
  C  C30  1  0.59687100  0.88043300  0.50395600  1
  C  C31  1  0.09687100  0.61956700  0.49604400  1
  C  C32  1  0.40312900  0.11956700  0.49604400  1
  C  C33  1  0.90312900  0.38043300  0.50395600  1
  C  C34  1  0.75923700  0.47858300  0.73376000  1
  C  C35  1  0.25923700  0.02141700  0.26624000  1
  C  C36  1  0.24076300  0.52141700  0.26624000  1
  C  C37  1  0.74076300  0.97858300  0.73376000  1
  C  C38  1  0.64652700  0.28508900  0.64054900  1
  C  C39  1  0.14652700  0.21491100  0.35945100  1
  C  C40  1  0.35347300  0.71491100  0.35945100  1
  C  C41  1  0.85347300  0.78508900  0.64054900  1
  C  C42  1  0.61160000  0.73150800  0.29091500  1
  C  C43  1  0.11160000  0.76849200  0.70908500  1
  C  C44  1  0.38840000  0.26849200  0.70908500  1
  C  C45  1  0.88840000  0.23150800  0.29091500  1
  C  C46  1  0.47307600  0.67721100  0.70943100  1
  C  C47  1  0.97307600  0.82278900  0.29056900  1
  C  C48  1  0.52692400  0.32278900  0.29056900  1
  C  C49  1  0.02692400  0.17721100  0.70943100  1
  C  C50  1  0.21240700  0.43742700  0.16050700  1
  C  C51  1  0.71240700  0.06257300  0.83949300  1
  C  C52  1  0.78759300  0.56257300  0.83949300  1
  C  C53  1  0.28759300  0.93742700  0.16050700  1
  Ni  Ni54  1  0.59028700  0.85505700  0.19374700  1
  Ni  Ni55  1  0.09028700  0.64494300  0.80625300  1
  Ni  Ni56  1  0.40971300  0.14494300  0.80625300  1
  Ni  Ni57  1  0.90971300  0.35505700  0.19374700  1
  Ni  Ni58  1  0.64797100  0.72074200  0.17789800  1
  Ni  Ni59  1  0.14797100  0.77925800  0.82210200  1
  Ni  Ni60  1  0.35202900  0.27925800  0.82210200  1
  Ni  Ni61  1  0.85202900  0.22074200  0.17789800  1
  Ni  Ni62  1  0.46120400  0.52675200  0.94602200  1
  Ni  Ni63  1  0.96120400  0.97324800  0.05397800  1
  Ni  Ni64  1  0.53879600  0.47324800  0.05397800  1
  Ni  Ni65  1  0.03879600  0.02675200  0.94602200  1
  Ni  Ni66  1  0.16856900  0.33534800  0.02132900  1
  Ni  Ni67  1  0.66856900  0.16465200  0.97867100  1
  Ni  Ni68  1  0.83143100  0.66465200  0.97867100  1
  Ni  Ni69  1  0.33143100  0.83534800  0.02132900  1
  Cu  Cu70  1  0.60019200  0.66473000  0.41318700  1
  Cu  Cu71  1  0.10019200  0.83527000  0.58681300  1
  Cu  Cu72  1  0.39980800  0.33527000  0.58681300  1
  Cu  Cu73  1  0.89980800  0.16473000  0.41318700  1
  Cu  Cu74  1  0.48327000  0.58588500  0.66504200  1
  Cu  Cu75  1  0.98327000  0.91411500  0.33495800  1
  Cu  Cu76  1  0.51673000  0.41411500  0.33495800  1
  Cu  Cu77  1  0.01673000  0.08588500  0.66504200  1
  Cu  Cu78  1  0.64420400  0.37879600  0.56986700  1
  Cu  Cu79  1  0.14420400  0.12120400  0.43013300  1
  Cu  Cu80  1  0.35579600  0.62120400  0.43013300  1
  Cu  Cu81  1  0.85579600  0.87879600  0.56986700  1
