# generated using pymatgen
data_Cu6Ni2C
_symmetry_space_group_name_H-M   'P 1'
_cell_length_a   5.69624347
_cell_length_b   5.69624347
_cell_length_c   4.45958152
_cell_angle_alpha   85.40098539
_cell_angle_beta   85.40098539
_cell_angle_gamma   73.39048246
_symmetry_Int_Tables_number   1
_chemical_formula_structural   Cu6Ni2C
_chemical_formula_sum   'Cu6 Ni2 C1'
_cell_volume   137.96821240
_cell_formula_units_Z   1
loop_
 _symmetry_equiv_pos_site_id
 _symmetry_equiv_pos_as_xyz
  1  'x, y, z'
loop_
 _atom_site_type_symbol
 _atom_site_label
 _atom_site_symmetry_multiplicity
 _atom_site_fract_x
 _atom_site_fract_y
 _atom_site_fract_z
 _atom_site_occupancy
  C  C0  1  0.05408800  0.94591200  0.00000000  1
  Ni  Ni1  1  0.42085400  0.28047200  0.31154300  1
  Ni  Ni2  1  0.71952800  0.57914600  0.68845700  1
  Cu  Cu3  1  0.91491900  0.74195100  0.51235900  1
  Cu  Cu4  1  0.25804900  0.08508100  0.48764100  1
  Cu  Cu5  1  0.73223400  0.26776600  0.50000000  1
  Cu  Cu6  1  0.91421000  0.43405200  0.94931000  1
  Cu  Cu7  1  0.56594800  0.08579000  0.05069000  1
  Cu  Cu8  1  0.42016900  0.57983100  0.00000000  1
