# generated using pymatgen
data_Cu6Ni2C29
_symmetry_space_group_name_H-M   'P 1'
_cell_length_a   9.21373289
_cell_length_b   9.21373289
_cell_length_c   13.12597400
_cell_angle_alpha   90.00000000
_cell_angle_beta   90.00000000
_cell_angle_gamma   120.00000637
_symmetry_Int_Tables_number   1
_chemical_formula_structural   Cu6Ni2C29
_chemical_formula_sum   'Cu12 Ni4 C58'
_cell_volume   965.01347718
_cell_formula_units_Z   2
loop_
 _symmetry_equiv_pos_site_id
 _symmetry_equiv_pos_as_xyz
  1  'x, y, z'
loop_
 _atom_site_type_symbol
 _atom_site_label
 _atom_site_symmetry_multiplicity
 _atom_site_fract_x
 _atom_site_fract_y
 _atom_site_fract_z
 _atom_site_occupancy
  C  C0  1  0.66666700  0.33333300  0.75000000  1
  C  C1  1  0.33333300  0.66666700  0.25000000  1
  Ni  Ni2  1  0.00000000  0.00000000  0.86636800  1
  Ni  Ni3  1  0.00000000  0.00000000  0.63363200  1
  Ni  Ni4  1  0.00000000  0.00000000  0.36636800  1
  Ni  Ni5  1  0.00000000  0.00000000  0.13363200  1
  C  C6  1  0.66666700  0.33333300  0.25000000  1
  C  C7  1  0.66666700  0.33333300  0.49243700  1
  C  C8  1  0.66666700  0.33333300  0.00756300  1
  C  C9  1  0.33333300  0.66666700  0.99243700  1
  C  C10  1  0.33333300  0.66666700  0.50756300  1
  C  C11  1  0.33333300  0.66666700  0.75000000  1
  Cu  Cu12  1  0.93536100  0.55971100  0.10340200  1
  Cu  Cu13  1  0.44028900  0.06463900  0.39659800  1
  Cu  Cu14  1  0.93536100  0.37565000  0.39659800  1
  Cu  Cu15  1  0.44028900  0.37565000  0.10340200  1
  Cu  Cu16  1  0.62435000  0.06463900  0.10340200  1
  Cu  Cu17  1  0.37565000  0.44028900  0.60340200  1
  Cu  Cu18  1  0.62435000  0.55971100  0.39659800  1
  Cu  Cu19  1  0.37565000  0.93536100  0.89659800  1
  Cu  Cu20  1  0.55971100  0.62435000  0.89659800  1
  Cu  Cu21  1  0.06463900  0.62435000  0.60340200  1
  Cu  Cu22  1  0.55971100  0.93536100  0.60340200  1
  Cu  Cu23  1  0.06463900  0.44028900  0.89659800  1
  C  C24  1  0.59041800  0.11166900  0.58602300  1
  C  C25  1  0.47874900  0.88833100  0.08602300  1
  C  C26  1  0.61695900  0.77017700  0.96995800  1
  C  C27  1  0.84678100  0.22982300  0.46995800  1
  C  C28  1  0.66723700  0.56542700  0.28574100  1
  C  C29  1  0.10181000  0.43457300  0.78574100  1
  C  C30  1  0.88833100  0.40958200  0.91397700  1
  C  C31  1  0.47874900  0.59041800  0.41397700  1
  C  C32  1  0.66723700  0.10181000  0.21425900  1
  C  C33  1  0.56542700  0.89819000  0.71425900  1
  C  C34  1  0.22982300  0.38304100  0.53004200  1
  C  C35  1  0.84678100  0.61695900  0.03004200  1
  C  C36  1  0.80852900  0.88898300  0.19245300  1
  C  C37  1  0.91954600  0.11101700  0.69245300  1
  C  C38  1  0.11166900  0.52125100  0.41397700  1
  C  C39  1  0.59041800  0.47874900  0.91397700  1
  C  C40  1  0.88898300  0.08045400  0.80754700  1
  C  C41  1  0.80852900  0.91954600  0.30754700  1
  C  C42  1  0.77017700  0.15321900  0.03004200  1
  C  C43  1  0.61695900  0.84678100  0.53004200  1
  C  C44  1  0.11101700  0.19147100  0.30754700  1
  C  C45  1  0.91954600  0.80852900  0.80754700  1
  C  C46  1  0.43457300  0.33276300  0.21425900  1
  C  C47  1  0.10181000  0.66723700  0.71425900  1
  C  C48  1  0.00000000  0.00000000  0.00000000  1
  C  C49  1  0.00000000  0.00000000  0.50000000  1
  C  C50  1  0.89819000  0.33276300  0.28574100  1
  C  C51  1  0.56542700  0.66723700  0.78574100  1
  C  C52  1  0.08045400  0.19147100  0.19245300  1
  C  C53  1  0.88898300  0.80852900  0.69245300  1
  C  C54  1  0.38304100  0.15321900  0.46995800  1
  C  C55  1  0.22982300  0.84678100  0.96995800  1
  C  C56  1  0.19147100  0.08045400  0.69245300  1
  C  C57  1  0.11101700  0.91954600  0.19245300  1
  C  C58  1  0.40958200  0.52125100  0.08602300  1
  C  C59  1  0.88833100  0.47874900  0.58602300  1
  C  C60  1  0.08045400  0.88898300  0.30754700  1
  C  C61  1  0.19147100  0.11101700  0.80754700  1
  C  C62  1  0.15321900  0.38304100  0.96995800  1
  C  C63  1  0.77017700  0.61695900  0.46995800  1
  C  C64  1  0.43457300  0.10181000  0.28574100  1
  C  C65  1  0.33276300  0.89819000  0.78574100  1
  C  C66  1  0.52125100  0.40958200  0.58602300  1
  C  C67  1  0.11166900  0.59041800  0.08602300  1
  C  C68  1  0.89819000  0.56542700  0.21425900  1
  C  C69  1  0.33276300  0.43457300  0.71425900  1
  C  C70  1  0.15321900  0.77017700  0.53004200  1
  C  C71  1  0.38304100  0.22982300  0.03004200  1
  C  C72  1  0.52125100  0.11166900  0.91397700  1
  C  C73  1  0.40958200  0.88833100  0.41397700  1
