# generated using pymatgen
data_Cu2Ni8C29
_symmetry_space_group_name_H-M   'P 1'
_cell_length_a   8.98062200
_cell_length_b   8.98062200
_cell_length_c   11.59353900
_cell_angle_alpha   90.00000000
_cell_angle_beta   90.00000000
_cell_angle_gamma   90.00000000
_symmetry_Int_Tables_number   1
_chemical_formula_structural   Cu2Ni8C29
_chemical_formula_sum   'Cu4 Ni16 C58'
_cell_volume   935.03713968
_cell_formula_units_Z   2
loop_
 _symmetry_equiv_pos_site_id
 _symmetry_equiv_pos_as_xyz
  1  'x, y, z'
loop_
 _atom_site_type_symbol
 _atom_site_label
 _atom_site_symmetry_multiplicity
 _atom_site_fract_x
 _atom_site_fract_y
 _atom_site_fract_z
 _atom_site_occupancy
  C  C0  1  0.02458400  0.66218300  0.11898100  1
  C  C1  1  0.97541600  0.33781700  0.11898100  1
  C  C2  1  0.47541600  0.16218300  0.61898100  1
  C  C3  1  0.52458400  0.83781700  0.61898100  1
  C  C4  1  0.97541600  0.33781700  0.88101900  1
  C  C5  1  0.02458400  0.66218300  0.88101900  1
  C  C6  1  0.52458400  0.83781700  0.38101900  1
  C  C7  1  0.47541600  0.16218300  0.38101900  1
  C  C8  1  0.66218300  0.02458400  0.11898100  1
  C  C9  1  0.33781700  0.97541600  0.11898100  1
  C  C10  1  0.16218300  0.47541600  0.61898100  1
  C  C11  1  0.83781700  0.52458400  0.61898100  1
  C  C12  1  0.33781700  0.97541600  0.88101900  1
  C  C13  1  0.66218300  0.02458400  0.88101900  1
  C  C14  1  0.83781700  0.52458400  0.38101900  1
  C  C15  1  0.16218300  0.47541600  0.38101900  1
  C  C16  1  0.84448600  0.57161000  0.12434700  1
  C  C17  1  0.15551400  0.42839000  0.12434700  1
  C  C18  1  0.65551400  0.07161000  0.62434700  1
  C  C19  1  0.34448600  0.92839000  0.62434700  1
  C  C20  1  0.15551400  0.42839000  0.87565300  1
  C  C21  1  0.84448600  0.57161000  0.87565300  1
  C  C22  1  0.34448600  0.92839000  0.37565300  1
  C  C23  1  0.65551400  0.07161000  0.37565300  1
  C  C24  1  0.57161000  0.84448600  0.12434700  1
  C  C25  1  0.42839000  0.15551400  0.12434700  1
  C  C26  1  0.07161000  0.65551400  0.62434700  1
  C  C27  1  0.92839000  0.34448600  0.62434700  1
  C  C28  1  0.42839000  0.15551400  0.87565300  1
  C  C29  1  0.57161000  0.84448600  0.87565300  1
  C  C30  1  0.92839000  0.34448600  0.37565300  1
  C  C31  1  0.07161000  0.65551400  0.37565300  1
  C  C32  1  0.89505500  0.70990400  0.23058400  1
  C  C33  1  0.10494500  0.29009600  0.23058400  1
  C  C34  1  0.60494500  0.20990400  0.73058400  1
  C  C35  1  0.39505500  0.79009600  0.73058400  1
  C  C36  1  0.10494500  0.29009600  0.76941600  1
  C  C37  1  0.89505500  0.70990400  0.76941600  1
  C  C38  1  0.39505500  0.79009600  0.26941600  1
  C  C39  1  0.60494500  0.20990400  0.26941600  1
  C  C40  1  0.70990400  0.89505500  0.23058400  1
  C  C41  1  0.29009600  0.10494500  0.23058400  1
  C  C42  1  0.20990400  0.60494500  0.73058400  1
  C  C43  1  0.79009600  0.39505500  0.73058400  1
  C  C44  1  0.29009600  0.10494500  0.76941600  1
  C  C45  1  0.70990400  0.89505500  0.76941600  1
  C  C46  1  0.79009600  0.39505500  0.26941600  1
  C  C47  1  0.20990400  0.60494500  0.26941600  1
  C  C48  1  0.50000000  0.50000000  0.00000000  1
  C  C49  1  0.00000000  0.00000000  0.50000000  1
  Ni  Ni50  1  0.93553100  0.61999600  0.17501800  1
  Ni  Ni51  1  0.06446900  0.38000400  0.17501800  1
  Ni  Ni52  1  0.56446900  0.11999600  0.67501800  1
  Ni  Ni53  1  0.43553100  0.88000400  0.67501800  1
  Ni  Ni54  1  0.06446900  0.38000400  0.82498200  1
  Ni  Ni55  1  0.93553100  0.61999600  0.82498200  1
  Ni  Ni56  1  0.43553100  0.88000400  0.32498200  1
  Ni  Ni57  1  0.56446900  0.11999600  0.32498200  1
  Ni  Ni58  1  0.61999600  0.93553100  0.17501800  1
  Ni  Ni59  1  0.38000400  0.06446900  0.17501800  1
  Ni  Ni60  1  0.11999600  0.56446900  0.67501800  1
  Ni  Ni61  1  0.88000400  0.43553100  0.67501800  1
  Ni  Ni62  1  0.38000400  0.06446900  0.82498200  1
  Ni  Ni63  1  0.61999600  0.93553100  0.82498200  1
  Ni  Ni64  1  0.88000400  0.43553100  0.32498200  1
  Ni  Ni65  1  0.11999600  0.56446900  0.32498200  1
  Cu  Cu66  1  0.00000000  0.50000000  0.25000000  1
  Cu  Cu67  1  0.50000000  0.00000000  0.75000000  1
  Cu  Cu68  1  0.00000000  0.50000000  0.75000000  1
  Cu  Cu69  1  0.50000000  0.00000000  0.25000000  1
  C  C70  1  0.50000000  0.50000000  0.79954300  1
  C  C71  1  0.00000000  0.00000000  0.29954300  1
  C  C72  1  0.50000000  0.50000000  0.20045700  1
  C  C73  1  0.00000000  0.00000000  0.70045700  1
  C  C74  1  0.31561500  0.68438500  0.00000000  1
  C  C75  1  0.68438500  0.31561500  0.00000000  1
  C  C76  1  0.18438500  0.18438500  0.50000000  1
  C  C77  1  0.81561500  0.81561500  0.50000000  1
