# generated using pymatgen
data_Cu(NiC4)2
_symmetry_space_group_name_H-M   'P 1'
_cell_length_a   7.13199200
_cell_length_b   9.82224800
_cell_length_c   10.04092200
_cell_angle_alpha   90.00000000
_cell_angle_beta   90.00000000
_cell_angle_gamma   90.00000000
_symmetry_Int_Tables_number   1
_chemical_formula_structural   Cu(NiC4)2
_chemical_formula_sum   'Cu6 Ni12 C48'
_cell_volume   703.38861747
_cell_formula_units_Z   6
loop_
 _symmetry_equiv_pos_site_id
 _symmetry_equiv_pos_as_xyz
  1  'x, y, z'
loop_
 _atom_site_type_symbol
 _atom_site_label
 _atom_site_symmetry_multiplicity
 _atom_site_fract_x
 _atom_site_fract_y
 _atom_site_fract_z
 _atom_site_occupancy
  C  C0  1  0.78821800  0.24362000  0.00000000  1
  C  C1  1  0.77040700  0.76849100  0.00000000  1
  C  C2  1  0.28884800  0.45682300  0.22535000  1
  C  C3  1  0.22075200  0.03556700  0.22918700  1
  C  C4  1  0.77924800  0.53556700  0.27081300  1
  C  C5  1  0.71115200  0.95682300  0.27465000  1
  C  C6  1  0.22959300  0.26849100  0.50000000  1
  C  C7  1  0.21178200  0.74362000  0.50000000  1
  C  C8  1  0.71115200  0.95682300  0.72535000  1
  C  C9  1  0.77924800  0.53556700  0.72918700  1
  C  C10  1  0.22075200  0.03556700  0.77081300  1
  C  C11  1  0.28884800  0.45682300  0.77465000  1
  Ni  Ni12  1  0.98039500  0.52575600  0.00000000  1
  Ni  Ni13  1  0.51709900  0.96963900  0.00000000  1
  Ni  Ni14  1  0.02320100  0.75315600  0.22633300  1
  Ni  Ni15  1  0.47596300  0.74308100  0.22671800  1
  Ni  Ni16  1  0.52403700  0.24308100  0.27328200  1
  Ni  Ni17  1  0.97679900  0.25315600  0.27366700  1
  Ni  Ni18  1  0.48290100  0.46963900  0.50000000  1
  Ni  Ni19  1  0.01960500  0.02575600  0.50000000  1
  Ni  Ni20  1  0.97679900  0.25315600  0.72633300  1
  Ni  Ni21  1  0.52403700  0.24308100  0.72671800  1
  Ni  Ni22  1  0.47596300  0.74308100  0.77328200  1
  Ni  Ni23  1  0.02320100  0.75315600  0.77366700  1
  Cu  Cu24  1  0.24899700  0.24653700  0.00000000  1
  Cu  Cu25  1  0.98009400  0.02333200  0.00000000  1
  Cu  Cu26  1  0.51803700  0.46571100  0.00000000  1
  Cu  Cu27  1  0.01990600  0.52333200  0.50000000  1
  Cu  Cu28  1  0.48196300  0.96571100  0.50000000  1
  Cu  Cu29  1  0.75100300  0.74653700  0.50000000  1
  C  C30  1  0.30615300  0.03129100  0.00000000  1
  C  C31  1  0.69710000  0.06849400  0.00000000  1
  C  C32  1  0.18950800  0.46208500  0.00000000  1
  C  C33  1  0.79899800  0.42883400  0.00000000  1
  C  C34  1  0.04548100  0.19393500  0.13097500  1
  C  C35  1  0.55697400  0.86050400  0.12323400  1
  C  C36  1  0.94484500  0.63323700  0.12505400  1
  C  C37  1  0.44447200  0.30174400  0.13341400  1
  C  C38  1  0.94659100  0.89863700  0.17265900  1
  C  C39  1  0.53664300  0.59187600  0.17888300  1
  C  C40  1  0.75048100  0.25795700  0.27647600  1
  C  C41  1  0.24951900  0.75795700  0.22352400  1
  C  C42  1  0.46335700  0.09187600  0.32111700  1
  C  C43  1  0.05340900  0.39863700  0.32734100  1
  C  C44  1  0.55552800  0.80174400  0.36658600  1
  C  C45  1  0.05515500  0.13323700  0.37494600  1
  C  C46  1  0.44302600  0.36050400  0.37676600  1
  C  C47  1  0.95451900  0.69393500  0.36902500  1
  C  C48  1  0.69384700  0.53129100  0.50000000  1
  C  C49  1  0.30290000  0.56849400  0.50000000  1
  C  C50  1  0.20100200  0.92883400  0.50000000  1
  C  C51  1  0.81049200  0.96208500  0.50000000  1
  C  C52  1  0.95451900  0.69393500  0.63097500  1
  C  C53  1  0.44302600  0.36050400  0.62323400  1
  C  C54  1  0.05515500  0.13323700  0.62505400  1
  C  C55  1  0.55552800  0.80174400  0.63341400  1
  C  C56  1  0.05340900  0.39863700  0.67265900  1
  C  C57  1  0.46335700  0.09187600  0.67888300  1
  C  C58  1  0.24951900  0.75795700  0.77647600  1
  C  C59  1  0.75048100  0.25795700  0.72352400  1
  C  C60  1  0.53664300  0.59187600  0.82111700  1
  C  C61  1  0.94659100  0.89863700  0.82734100  1
  C  C62  1  0.44447200  0.30174400  0.86658600  1
  C  C63  1  0.94484500  0.63323700  0.87494600  1
  C  C64  1  0.55697400  0.86050400  0.87676600  1
  C  C65  1  0.04548100  0.19393500  0.86902500  1
