# generated using pymatgen
data_CuNiC5
_symmetry_space_group_name_H-M   'P 1'
_cell_length_a   4.95598100
_cell_length_b   7.27778800
_cell_length_c   10.65511000
_cell_angle_alpha   90.00000000
_cell_angle_beta   90.00000000
_cell_angle_gamma   90.00000000
_symmetry_Int_Tables_number   1
_chemical_formula_structural   CuNiC5
_chemical_formula_sum   'Cu4 Ni4 C20'
_cell_volume   384.31467732
_cell_formula_units_Z   4
loop_
 _symmetry_equiv_pos_site_id
 _symmetry_equiv_pos_as_xyz
  1  'x, y, z'
loop_
 _atom_site_type_symbol
 _atom_site_label
 _atom_site_symmetry_multiplicity
 _atom_site_fract_x
 _atom_site_fract_y
 _atom_site_fract_z
 _atom_site_occupancy
  C  C0  1  0.24107300  0.00614200  0.15674700  1
  C  C1  1  0.74107300  0.50614200  0.34325300  1
  C  C2  1  0.24107300  0.49385800  0.65674700  1
  C  C3  1  0.74107300  0.99385800  0.84325300  1
  Ni  Ni4  1  0.74820100  0.76627300  0.08928600  1
  Ni  Ni5  1  0.24820100  0.26627300  0.41071400  1
  Ni  Ni6  1  0.74820100  0.73372700  0.58928600  1
  Ni  Ni7  1  0.24820100  0.23372700  0.91071400  1
  Cu  Cu8  1  0.72529600  0.25883500  0.12158300  1
  Cu  Cu9  1  0.22529600  0.75883500  0.37841700  1
  Cu  Cu10  1  0.72529600  0.24116500  0.62158300  1
  Cu  Cu11  1  0.22529600  0.74116500  0.87841700  1
  C  C12  1  0.14307400  0.23424800  0.06045600  1
  C  C13  1  0.08370200  0.78411200  0.07221900  1
  C  C14  1  0.66876700  0.58090300  0.16598600  1
  C  C15  1  0.63224500  0.95219000  0.15735700  1
  C  C16  1  0.13224500  0.45219000  0.34264300  1
  C  C17  1  0.16876700  0.08090300  0.33401400  1
  C  C18  1  0.58370200  0.28411200  0.42778100  1
  C  C19  1  0.64307400  0.73424800  0.43954400  1
  C  C20  1  0.14307400  0.26575200  0.56045600  1
  C  C21  1  0.08370200  0.71588800  0.57221900  1
  C  C22  1  0.66876700  0.91909700  0.66598600  1
  C  C23  1  0.63224500  0.54781000  0.65735700  1
  C  C24  1  0.13224500  0.04781000  0.84264300  1
  C  C25  1  0.16876700  0.41909700  0.83401400  1
  C  C26  1  0.58370200  0.21588800  0.92778100  1
  C  C27  1  0.64307400  0.76575200  0.93954400  1
