# generated using pymatgen
data_Cu6Ni5C12
_symmetry_space_group_name_H-M   'P 1'
_cell_length_a   7.63976800
_cell_length_b   8.77552689
_cell_length_c   8.87542040
_cell_angle_alpha   118.85784091
_cell_angle_beta   90.00000000
_cell_angle_gamma   115.80363894
_symmetry_Int_Tables_number   1
_chemical_formula_structural   Cu6Ni5C12
_chemical_formula_sum   'Cu12 Ni10 C24'
_cell_volume   452.22035798
_cell_formula_units_Z   2
loop_
 _symmetry_equiv_pos_site_id
 _symmetry_equiv_pos_as_xyz
  1  'x, y, z'
loop_
 _atom_site_type_symbol
 _atom_site_label
 _atom_site_symmetry_multiplicity
 _atom_site_fract_x
 _atom_site_fract_y
 _atom_site_fract_z
 _atom_site_occupancy
  C  C0  1  0.74555400  0.00000000  0.50000000  1
  C  C1  1  0.24496400  0.00000000  0.50000000  1
  C  C2  1  0.76532200  0.54097500  0.72516700  1
  C  C3  1  0.22434700  0.45902500  0.27483300  1
  C  C4  1  0.17264300  0.28159500  0.90407400  1
  C  C5  1  0.89104900  0.71840500  0.09592600  1
  C  C6  1  0.26043200  0.51782500  0.98834500  1
  C  C7  1  0.74260700  0.48217500  0.01165500  1
  C  C8  1  0.18744800  0.38827400  0.56075800  1
  C  C9  1  0.79917500  0.61172600  0.43924200  1
  C  C10  1  0.80046400  0.23296300  0.11467500  1
  C  C11  1  0.56750100  0.76703700  0.88532500  1
  C  C12  1  0.70905300  0.86162100  0.77982300  1
  C  C13  1  0.84743300  0.13837900  0.22017700  1
  C  C14  1  0.13760600  0.86200400  0.77585200  1
  C  C15  1  0.27560200  0.13799600  0.22414800  1
  C  C16  1  0.58075200  0.15837300  0.86976000  1
  C  C17  1  0.42237900  0.84162700  0.13024000  1
  C  C18  1  0.80682400  0.41299300  0.37749300  1
  C  C19  1  0.39383100  0.58700700  0.62250700  1
  C  C20  1  0.50725600  0.23226900  0.04589300  1
  C  C21  1  0.27498700  0.76773100  0.95410700  1
  C  C22  1  0.48765900  0.33980900  0.30955500  1
  C  C23  1  0.14785000  0.66019100  0.69044500  1
  Ni  Ni24  1  0.89518800  0.26158500  0.21475900  1
  Ni  Ni25  1  0.63360400  0.73841500  0.78524100  1
  Ni  Ni26  1  0.35613600  0.25928600  0.21774100  1
  Ni  Ni27  1  0.09685000  0.74071400  0.78225900  1
  Ni  Ni28  1  0.73913800  0.48950300  0.44580700  1
  Ni  Ni29  1  0.24963600  0.51049700  0.55419300  1
  Ni  Ni30  1  0.20444800  0.40854700  0.01261600  1
  Ni  Ni31  1  0.79590200  0.59145300  0.98738400  1
  Ni  Ni32  1  0.62905300  0.25071500  0.00143100  1
  Ni  Ni33  1  0.37833800  0.74928500  0.99856900  1
  Cu  Cu34  1  0.79597700  0.97081500  0.26311100  1
  Cu  Cu35  1  0.82516200  0.02918500  0.73688900  1
  Cu  Cu36  1  0.15550600  0.95576800  0.25574800  1
  Cu  Cu37  1  0.19973800  0.04423200  0.74425200  1
  Cu  Cu38  1  0.50398400  0.01974700  0.64302600  1
  Cu  Cu39  1  0.48423700  0.98025300  0.35697400  1
  Cu  Cu40  1  0.08563000  0.17942100  0.56738600  1
  Cu  Cu41  1  0.90620900  0.82057900  0.43261400  1
  Cu  Cu42  1  0.45992500  0.29868800  0.61595900  1
  Cu  Cu43  1  0.16123700  0.70131200  0.38404100  1
  Cu  Cu44  1  0.82926400  0.29926200  0.61602700  1
  Cu  Cu45  1  0.53000200  0.70073800  0.38397300  1
