# generated using pymatgen
data_CuNi2C33
_symmetry_space_group_name_H-M   'P 1'
_cell_length_a   8.70573296
_cell_length_b   8.70573296
_cell_length_c   8.70573310
_cell_angle_alpha   59.96080869
_cell_angle_beta   59.96080869
_cell_angle_gamma   59.96081340
_symmetry_Int_Tables_number   1
_chemical_formula_structural   CuNi2C33
_chemical_formula_sum   'Cu1 Ni2 C33'
_cell_volume   466.13840240
_cell_formula_units_Z   1
loop_
 _symmetry_equiv_pos_site_id
 _symmetry_equiv_pos_as_xyz
  1  'x, y, z'
loop_
 _atom_site_type_symbol
 _atom_site_label
 _atom_site_symmetry_multiplicity
 _atom_site_fract_x
 _atom_site_fract_y
 _atom_site_fract_z
 _atom_site_occupancy
  Ni  Ni0  1  0.00474800  0.00474800  0.00474800  1
  Ni  Ni1  1  0.50058500  0.50058500  0.50058500  1
  Cu  Cu2  1  0.85600200  0.85600200  0.85600200  1
  C  C3  1  0.14698100  0.14698100  0.14698100  1
  C  C4  1  0.35503500  0.35503500  0.35503500  1
  C  C5  1  0.64449500  0.64449500  0.64449500  1
  C  C6  1  0.74708900  0.04462500  0.45086000  1
  C  C7  1  0.04462500  0.45086000  0.74708900  1
  C  C8  1  0.45086000  0.74708900  0.04462500  1
  C  C9  1  0.53826800  0.25525800  0.95754800  1
  C  C10  1  0.95754800  0.53826800  0.25525800  1
  C  C11  1  0.25525800  0.95754800  0.53826800  1
  C  C12  1  0.30838500  0.11535400  0.50753800  1
  C  C13  1  0.50753800  0.30838500  0.11535400  1
  C  C14  1  0.91347100  0.06028600  0.26330900  1
  C  C15  1  0.11535400  0.50753800  0.30838500  1
  C  C16  1  0.81245100  0.99419800  0.61621200  1
  C  C17  1  0.58780800  0.23670600  0.44491600  1
  C  C18  1  0.06028600  0.26330900  0.91347100  1
  C  C19  1  0.23670600  0.44491600  0.58780800  1
  C  C20  1  0.38769300  0.18685700  0.99673100  1
  C  C21  1  0.44491600  0.58780800  0.23670600  1
  C  C22  1  0.73656400  0.08846000  0.93664100  1
  C  C23  1  0.99673100  0.38769300  0.18685700  1
  C  C24  1  0.99419800  0.61621200  0.81245100  1
  C  C25  1  0.26330900  0.91347100  0.06028600  1
  C  C26  1  0.55976100  0.41305400  0.76275700  1
  C  C27  1  0.61621200  0.81245100  0.99419800  1
  C  C28  1  0.76275700  0.55976100  0.41305400  1
  C  C29  1  0.93664100  0.73656400  0.08846000  1
  C  C30  1  0.41305400  0.76275700  0.55976100  1
  C  C31  1  0.18685700  0.99673100  0.38769300  1
  C  C32  1  0.88645300  0.49549800  0.68740100  1
  C  C33  1  0.08846000  0.93664100  0.73656400  1
  C  C34  1  0.49549800  0.68740100  0.88645300  1
  C  C35  1  0.68740100  0.88645300  0.49549800  1
