# generated using pymatgen
data_CuNi3C37
_symmetry_space_group_name_H-M   'P 1'
_cell_length_a   8.64206600
_cell_length_b   8.64206600
_cell_length_c   8.64206625
_cell_angle_alpha   61.18771221
_cell_angle_beta   61.18771221
_cell_angle_gamma   61.18771468
_symmetry_Int_Tables_number   1
_chemical_formula_structural   CuNi3C37
_chemical_formula_sum   'Cu1 Ni3 C37'
_cell_volume   468.58599635
_cell_formula_units_Z   1
loop_
 _symmetry_equiv_pos_site_id
 _symmetry_equiv_pos_as_xyz
  1  'x, y, z'
loop_
 _atom_site_type_symbol
 _atom_site_label
 _atom_site_symmetry_multiplicity
 _atom_site_fract_x
 _atom_site_fract_y
 _atom_site_fract_z
 _atom_site_occupancy
  C  C0  1  0.44489700  0.25458800  0.69743200  1
  C  C1  1  0.69743200  0.44489700  0.25458800  1
  C  C2  1  0.84394000  0.20881700  0.66278200  1
  C  C3  1  0.99403900  0.99403900  0.99403900  1
  C  C4  1  0.25458800  0.69743200  0.44489700  1
  C  C5  1  0.20881700  0.66278200  0.84394000  1
  C  C6  1  0.66278200  0.84394000  0.20881700  1
  Ni  Ni7  1  0.14109000  0.14109000  0.14109000  1
  Ni  Ni8  1  0.64289600  0.64289600  0.64289600  1
  Ni  Ni9  1  0.35788200  0.35788200  0.35788200  1
  Cu  Cu10  1  0.85304900  0.85304900  0.85304900  1
  C  C11  1  0.74852200  0.04572800  0.45657300  1
  C  C12  1  0.04572800  0.45657300  0.74852200  1
  C  C13  1  0.45657300  0.74852200  0.04572800  1
  C  C14  1  0.54081400  0.25288100  0.96300100  1
  C  C15  1  0.96300100  0.54081400  0.25288100  1
  C  C16  1  0.25288100  0.96300100  0.54081400  1
  C  C17  1  0.88395900  0.49817800  0.68870700  1
  C  C18  1  0.49817800  0.68870700  0.88395900  1
  C  C19  1  0.68870700  0.88395900  0.49817800  1
  C  C20  1  0.91548100  0.05700200  0.27292100  1
  C  C21  1  0.58963400  0.24173100  0.42812500  1
  C  C22  1  0.78076500  0.03211900  0.62561000  1
  C  C23  1  0.05700200  0.27292100  0.91548100  1
  C  C24  1  0.24173100  0.42812500  0.58963400  1
  C  C25  1  0.42812500  0.58963400  0.24173100  1
  C  C26  1  0.37446800  0.21806000  0.97335300  1
  C  C27  1  0.71976400  0.07699600  0.96588600  1
  C  C28  1  0.97335300  0.37446800  0.21806000  1
  C  C29  1  0.03211900  0.62561000  0.78076500  1
  C  C30  1  0.27292100  0.91548100  0.05700200  1
  C  C31  1  0.62561000  0.78076500  0.03211900  1
  C  C32  1  0.58831400  0.39791700  0.76071600  1
  C  C33  1  0.76071600  0.58831400  0.39791700  1
  C  C34  1  0.96588600  0.71976400  0.07699600  1
  C  C35  1  0.21806000  0.97335300  0.37446800  1
  C  C36  1  0.39791700  0.76071600  0.58831400  1
  C  C37  1  0.07699600  0.96588600  0.71976400  1
  C  C38  1  0.31059800  0.12232800  0.49785500  1
  C  C39  1  0.49785500  0.31059800  0.12232800  1
  C  C40  1  0.12232800  0.49785500  0.31059800  1
