# generated using pymatgen
data_Cu(NiC4)2
_symmetry_space_group_name_H-M   'P 1'
_cell_length_a   12.81851300
_cell_length_b   5.04023000
_cell_length_c   8.70297215
_cell_angle_alpha   66.39077124
_cell_angle_beta   90.00000000
_cell_angle_gamma   90.00000000
_symmetry_Int_Tables_number   1
_chemical_formula_structural   Cu(NiC4)2
_chemical_formula_sum   'Cu4 Ni8 C32'
_cell_volume   515.21968270
_cell_formula_units_Z   4
loop_
 _symmetry_equiv_pos_site_id
 _symmetry_equiv_pos_as_xyz
  1  'x, y, z'
loop_
 _atom_site_type_symbol
 _atom_site_label
 _atom_site_symmetry_multiplicity
 _atom_site_fract_x
 _atom_site_fract_y
 _atom_site_fract_z
 _atom_site_occupancy
  C  C0  1  0.12630800  0.13413800  0.49533800  1
  C  C1  1  0.37369200  0.13413800  0.99533800  1
  C  C2  1  0.87369200  0.86586200  0.50466200  1
  C  C3  1  0.62630800  0.86586200  0.00466200  1
  Ni  Ni4  1  0.03517300  0.39960400  0.75018900  1
  Ni  Ni5  1  0.46482700  0.39960400  0.25018900  1
  Ni  Ni6  1  0.96482700  0.60039600  0.24981100  1
  Ni  Ni7  1  0.53517300  0.60039600  0.74981100  1
  Ni  Ni8  1  0.32203300  0.81799000  0.74511700  1
  Ni  Ni9  1  0.17796700  0.81799000  0.24511700  1
  Ni  Ni10  1  0.67796700  0.18201000  0.25488300  1
  Ni  Ni11  1  0.82203300  0.18201000  0.75488300  1
  Cu  Cu12  1  0.16776700  0.46659000  0.89751600  1
  Cu  Cu13  1  0.33223300  0.46659000  0.39751600  1
  Cu  Cu14  1  0.83223300  0.53341000  0.10248400  1
  Cu  Cu15  1  0.66776700  0.53341000  0.60248400  1
  C  C16  1  0.42807700  0.74594400  0.66547400  1
  C  C17  1  0.07192300  0.74594400  0.16547400  1
  C  C18  1  0.57192300  0.25405600  0.33452600  1
  C  C19  1  0.92807700  0.25405600  0.83452600  1
  C  C20  1  0.09753400  0.19198700  0.69800600  1
  C  C21  1  0.40246600  0.19198700  0.19800600  1
  C  C22  1  0.90246600  0.80801300  0.30199400  1
  C  C23  1  0.59753400  0.80801300  0.80199400  1
  C  C24  1  0.28891200  0.53744100  0.88920800  1
  C  C25  1  0.21108800  0.53744100  0.38920800  1
  C  C26  1  0.71108800  0.46255900  0.11079200  1
  C  C27  1  0.78891200  0.46255900  0.61079200  1
  C  C28  1  0.01101200  0.69050600  0.60078300  1
  C  C29  1  0.48898800  0.69050600  0.10078300  1
  C  C30  1  0.98898800  0.30949400  0.39921700  1
  C  C31  1  0.51101200  0.30949400  0.89921700  1
  C  C32  1  0.34914500  0.06748600  0.79522800  1
  C  C33  1  0.15085500  0.06748600  0.29522800  1
  C  C34  1  0.65085500  0.93251400  0.20477200  1
  C  C35  1  0.84914500  0.93251400  0.70477200  1
  C  C36  1  0.24774900  0.90884000  0.59649600  1
  C  C37  1  0.25225100  0.90884000  0.09649600  1
  C  C38  1  0.75225100  0.09116000  0.40350400  1
  C  C39  1  0.74774900  0.09116000  0.90350400  1
  C  C40  1  0.08865200  0.44373600  0.89732900  1
  C  C41  1  0.41134800  0.44373600  0.39732900  1
  C  C42  1  0.91134800  0.55626400  0.10267100  1
  C  C43  1  0.58865200  0.55626400  0.60267100  1
