# generated using pymatgen
data_Cu8NiC7
_symmetry_space_group_name_H-M   'P 1'
_cell_length_a   5.14317290
_cell_length_b   5.14317290
_cell_length_c   11.66359970
_cell_angle_alpha   77.94213625
_cell_angle_beta   77.94213625
_cell_angle_gamma   33.14393449
_symmetry_Int_Tables_number   1
_chemical_formula_structural   Cu8NiC7
_chemical_formula_sum   'Cu8 Ni1 C7'
_cell_volume   164.63066524
_cell_formula_units_Z   1
loop_
 _symmetry_equiv_pos_site_id
 _symmetry_equiv_pos_as_xyz
  1  'x, y, z'
loop_
 _atom_site_type_symbol
 _atom_site_label
 _atom_site_symmetry_multiplicity
 _atom_site_fract_x
 _atom_site_fract_y
 _atom_site_fract_z
 _atom_site_occupancy
  C  C0  1  0.13198000  0.13198000  0.43947100  1
  C  C1  1  0.22666600  0.22666600  0.12332500  1
  C  C2  1  0.84877400  0.84877400  0.55203800  1
  C  C3  1  0.00205400  0.00205400  0.00774100  1
  C  C4  1  0.57701700  0.57701700  0.72983500  1
  C  C5  1  0.76074000  0.76074000  0.87695700  1
  C  C6  1  0.42781500  0.42781500  0.29712400  1
  Ni  Ni7  1  0.12830300  0.12830300  0.83891600  1
  Cu  Cu8  1  0.62947900  0.62947900  0.05187200  1
  Cu  Cu9  1  0.08774300  0.08774300  0.27518600  1
  Cu  Cu10  1  0.18508200  0.18508200  0.59721200  1
  Cu  Cu11  1  0.78554300  0.78554300  0.39422500  1
  Cu  Cu12  1  0.86753200  0.86753200  0.16993300  1
  Cu  Cu13  1  0.91133600  0.91133600  0.71267600  1
  Cu  Cu14  1  0.37091800  0.37091800  0.95829200  1
  Cu  Cu15  1  0.48336300  0.48336300  0.47449100  1
