# generated using pymatgen
data_Cu14Ni2C23
_symmetry_space_group_name_H-M   'P 1'
_cell_length_a   12.80656700
_cell_length_b   6.54334200
_cell_length_c   9.13660418
_cell_angle_alpha   71.54218441
_cell_angle_beta   90.00000000
_cell_angle_gamma   90.00000000
_symmetry_Int_Tables_number   1
_chemical_formula_structural   Cu14Ni2C23
_chemical_formula_sum   'Cu28 Ni4 C46'
_cell_volume   726.24072247
_cell_formula_units_Z   2
loop_
 _symmetry_equiv_pos_site_id
 _symmetry_equiv_pos_as_xyz
  1  'x, y, z'
loop_
 _atom_site_type_symbol
 _atom_site_label
 _atom_site_symmetry_multiplicity
 _atom_site_fract_x
 _atom_site_fract_y
 _atom_site_fract_z
 _atom_site_occupancy
  C  C0  1  0.00000000  0.00000000  0.00000000  1
  C  C1  1  0.50000000  0.00000000  0.50000000  1
  C  C2  1  0.55209500  0.30659400  0.61209600  1
  C  C3  1  0.05209500  0.69340600  0.88790400  1
  C  C4  1  0.44790500  0.69340600  0.38790400  1
  C  C5  1  0.94790500  0.30659400  0.11209600  1
  C  C6  1  0.04595900  0.34857000  0.00985300  1
  C  C7  1  0.54595900  0.65143000  0.49014700  1
  C  C8  1  0.95404100  0.65143000  0.99014700  1
  C  C9  1  0.45404100  0.34857000  0.50985300  1
  C  C10  1  0.59002300  0.69409500  0.73170500  1
  C  C11  1  0.09002300  0.30590500  0.76829500  1
  C  C12  1  0.40997700  0.30590500  0.26829500  1
  C  C13  1  0.90997700  0.69409500  0.23170500  1
  C  C14  1  0.62560300  0.91485300  0.75684900  1
  C  C15  1  0.12560300  0.08514700  0.74315100  1
  C  C16  1  0.37439700  0.08514700  0.24315100  1
  C  C17  1  0.87439700  0.91485300  0.25684900  1
  C  C18  1  0.80897100  0.03311200  0.86222600  1
  C  C19  1  0.30897100  0.96688800  0.63777400  1
  C  C20  1  0.19102900  0.96688800  0.13777400  1
  C  C21  1  0.69102900  0.03311200  0.36222600  1
  C  C22  1  0.89608100  0.07988900  0.73069300  1
  C  C23  1  0.39608100  0.92011100  0.76930700  1
  C  C24  1  0.10391900  0.92011100  0.26930700  1
  C  C25  1  0.60391900  0.07988900  0.23069300  1
  C  C26  1  0.84704500  0.52727600  0.57750700  1
  C  C27  1  0.34704500  0.47272400  0.92249300  1
  C  C28  1  0.15295500  0.47272400  0.42249300  1
  C  C29  1  0.65295500  0.52727600  0.07750700  1
  C  C30  1  0.80366600  0.57982800  0.73500600  1
  C  C31  1  0.30366600  0.42017200  0.76499400  1
  C  C32  1  0.19633400  0.42017200  0.26499400  1
  C  C33  1  0.69633400  0.57982800  0.23500600  1
  C  C34  1  0.83302700  0.78630600  0.56842100  1
  C  C35  1  0.33302700  0.21369400  0.93157900  1
  C  C36  1  0.16697300  0.21369400  0.43157900  1
  C  C37  1  0.66697300  0.78630600  0.06842100  1
  C  C38  1  0.93067100  0.63631200  0.67531600  1
  C  C39  1  0.43067100  0.36368800  0.82468400  1
  C  C40  1  0.06932900  0.36368800  0.32468400  1
  C  C41  1  0.56932900  0.63631200  0.17531600  1
  C  C42  1  0.86169600  0.26495000  0.40450500  1
  C  C43  1  0.36169600  0.73505000  0.09549500  1
  C  C44  1  0.13830400  0.73505000  0.59549500  1
  C  C45  1  0.63830400  0.26495000  0.90450500  1
  Ni  Ni46  1  0.85314300  0.63395900  0.63977000  1
  Ni  Ni47  1  0.35314300  0.36604100  0.86023000  1
  Ni  Ni48  1  0.14685700  0.36604100  0.36023000  1
  Ni  Ni49  1  0.64685700  0.63395900  0.13977000  1
  Cu  Cu50  1  0.82258700  0.05682600  0.38662000  1
  Cu  Cu51  1  0.32258700  0.94317400  0.11338000  1
  Cu  Cu52  1  0.17741300  0.94317400  0.61338000  1
  Cu  Cu53  1  0.67741300  0.05682600  0.88662000  1
  Cu  Cu54  1  0.77385200  0.41209200  0.40467300  1
  Cu  Cu55  1  0.27385200  0.58790800  0.09532700  1
  Cu  Cu56  1  0.22614800  0.58790800  0.59532700  1
  Cu  Cu57  1  0.72614800  0.41209200  0.90467300  1
  Cu  Cu58  1  0.92389800  0.22141900  0.54808600  1
  Cu  Cu59  1  0.42389800  0.77858100  0.95191400  1
  Cu  Cu60  1  0.07610200  0.77858100  0.45191400  1
  Cu  Cu61  1  0.57610200  0.22141900  0.04808600  1
  Cu  Cu62  1  0.93269800  0.37367800  0.26958400  1
  Cu  Cu63  1  0.43269800  0.62632200  0.23041600  1
  Cu  Cu64  1  0.06730200  0.62632200  0.73041600  1
  Cu  Cu65  1  0.56730200  0.37367800  0.76958400  1
  Cu  Cu66  1  0.52629100  0.30014800  0.50968300  1
  Cu  Cu67  1  0.02629100  0.69985200  0.99031700  1
  Cu  Cu68  1  0.47370900  0.69985200  0.49031700  1
  Cu  Cu69  1  0.97370900  0.30014800  0.00968300  1
  Cu  Cu70  1  0.60698700  0.84606000  0.67799700  1
  Cu  Cu71  1  0.10698700  0.15394000  0.82200300  1
  Cu  Cu72  1  0.39301300  0.15394000  0.32200300  1
  Cu  Cu73  1  0.89301300  0.84606000  0.17799700  1
  Cu  Cu74  1  0.88200400  0.99845900  0.84115300  1
  Cu  Cu75  1  0.38200400  0.00154100  0.65884700  1
  Cu  Cu76  1  0.11799600  0.00154100  0.15884700  1
  Cu  Cu77  1  0.61799600  0.99845900  0.34115300  1
