# generated using pymatgen
data_Cu8NiC14
_symmetry_space_group_name_H-M   'P 1'
_cell_length_a   7.59804100
_cell_length_b   10.37720300
_cell_length_c   15.10987300
_cell_angle_alpha   90.00000000
_cell_angle_beta   90.00000000
_cell_angle_gamma   90.00000000
_symmetry_Int_Tables_number   1
_chemical_formula_structural   Cu8NiC14
_chemical_formula_sum   'Cu32 Ni4 C56'
_cell_volume   1191.35929992
_cell_formula_units_Z   4
loop_
 _symmetry_equiv_pos_site_id
 _symmetry_equiv_pos_as_xyz
  1  'x, y, z'
loop_
 _atom_site_type_symbol
 _atom_site_label
 _atom_site_symmetry_multiplicity
 _atom_site_fract_x
 _atom_site_fract_y
 _atom_site_fract_z
 _atom_site_occupancy
  C  C0  1  0.69823300  0.92898900  0.75000000  1
  C  C1  1  0.30176700  0.07101100  0.25000000  1
  C  C2  1  0.69823300  0.57101100  0.25000000  1
  C  C3  1  0.30176700  0.42898900  0.75000000  1
  C  C4  1  0.37455500  0.12647300  0.61434800  1
  C  C5  1  0.62544500  0.87352700  0.11434800  1
  C  C6  1  0.37455500  0.37352700  0.38565200  1
  C  C7  1  0.62544500  0.62647300  0.88565200  1
  C  C8  1  0.62544500  0.87352700  0.38565200  1
  C  C9  1  0.37455500  0.12647300  0.88565200  1
  C  C10  1  0.62544500  0.62647300  0.61434800  1
  C  C11  1  0.37455500  0.37352700  0.11434800  1
  C  C12  1  0.15502000  0.77893900  0.75000000  1
  C  C13  1  0.84498000  0.22106100  0.25000000  1
  C  C14  1  0.15502000  0.72106100  0.25000000  1
  C  C15  1  0.84498000  0.27893900  0.75000000  1
  C  C16  1  0.85542700  0.04697100  0.57126200  1
  C  C17  1  0.14457300  0.95302900  0.07126200  1
  C  C18  1  0.85542700  0.45302900  0.42873800  1
  C  C19  1  0.14457300  0.54697100  0.92873800  1
  C  C20  1  0.14457300  0.95302900  0.42873800  1
  C  C21  1  0.85542700  0.04697100  0.92873800  1
  C  C22  1  0.14457300  0.54697100  0.57126200  1
  C  C23  1  0.85542700  0.45302900  0.07126200  1
  C  C24  1  0.92585800  0.90111200  0.57353500  1
  C  C25  1  0.07414200  0.09888800  0.07353500  1
  C  C26  1  0.92585800  0.59888800  0.42646500  1
  C  C27  1  0.07414200  0.40111200  0.92646500  1
  C  C28  1  0.07414200  0.09888800  0.42646500  1
  C  C29  1  0.92585800  0.90111200  0.92646500  1
  C  C30  1  0.07414200  0.40111200  0.57353500  1
  C  C31  1  0.92585800  0.59888800  0.07353500  1
  C  C32  1  0.23723200  0.83425800  0.67526900  1
  C  C33  1  0.76276800  0.16574200  0.17526900  1
  C  C34  1  0.23723200  0.66574200  0.32473100  1
  C  C35  1  0.76276800  0.33425800  0.82473100  1
  C  C36  1  0.76276800  0.16574200  0.32473100  1
  C  C37  1  0.23723200  0.83425800  0.82473100  1
  C  C38  1  0.76276800  0.33425800  0.67526900  1
  C  C39  1  0.23723200  0.66574200  0.17526900  1
  C  C40  1  0.19673300  0.08494500  0.61720100  1
  C  C41  1  0.80326700  0.91505500  0.11720100  1
  C  C42  1  0.19673300  0.41505500  0.38279900  1
  C  C43  1  0.80326700  0.58494500  0.88279900  1
  C  C44  1  0.80326700  0.91505500  0.38279900  1
  C  C45  1  0.19673300  0.08494500  0.88279900  1
  C  C46  1  0.80326700  0.58494500  0.61720100  1
  C  C47  1  0.19673300  0.41505500  0.11720100  1
  C  C48  1  0.41419400  0.13548900  0.52263200  1
  C  C49  1  0.58580600  0.86451100  0.02263200  1
  C  C50  1  0.41419400  0.36451100  0.47736800  1
  C  C51  1  0.58580600  0.63548900  0.97736800  1
  C  C52  1  0.58580600  0.86451100  0.47736800  1
  C  C53  1  0.41419400  0.13548900  0.97736800  1
  C  C54  1  0.58580600  0.63548900  0.52263200  1
  C  C55  1  0.41419400  0.36451100  0.02263200  1
  Ni  Ni56  1  0.09157700  0.75000000  0.50000000  1
  Ni  Ni57  1  0.90842300  0.25000000  0.00000000  1
  Ni  Ni58  1  0.90842300  0.25000000  0.50000000  1
  Ni  Ni59  1  0.09157700  0.75000000  0.00000000  1
  Cu  Cu60  1  0.38560500  0.26060500  0.65538800  1
  Cu  Cu61  1  0.61439500  0.73939500  0.15538800  1
  Cu  Cu62  1  0.38560500  0.23939500  0.34461200  1
  Cu  Cu63  1  0.61439500  0.76060500  0.84461200  1
  Cu  Cu64  1  0.61439500  0.73939500  0.34461200  1
  Cu  Cu65  1  0.38560500  0.26060500  0.84461200  1
  Cu  Cu66  1  0.61439500  0.76060500  0.65538800  1
  Cu  Cu67  1  0.38560500  0.23939500  0.15538800  1
  Cu  Cu68  1  0.48911200  0.02158300  0.65504400  1
  Cu  Cu69  1  0.51088800  0.97841700  0.15504400  1
  Cu  Cu70  1  0.48911200  0.47841700  0.34495600  1
  Cu  Cu71  1  0.51088800  0.52158300  0.84495600  1
  Cu  Cu72  1  0.51088800  0.97841700  0.34495600  1
  Cu  Cu73  1  0.48911200  0.02158300  0.84495600  1
  Cu  Cu74  1  0.51088800  0.52158300  0.65504400  1
  Cu  Cu75  1  0.48911200  0.47841700  0.15504400  1
  Cu  Cu76  1  0.95958200  0.81536500  0.75000000  1
  Cu  Cu77  1  0.04041800  0.18463500  0.25000000  1
  Cu  Cu78  1  0.95958200  0.68463500  0.25000000  1
  Cu  Cu79  1  0.04041800  0.31536500  0.75000000  1
  Cu  Cu80  1  0.19411800  0.63450300  0.75000000  1
  Cu  Cu81  1  0.80588200  0.36549700  0.25000000  1
  Cu  Cu82  1  0.19411800  0.86549700  0.25000000  1
  Cu  Cu83  1  0.80588200  0.13450300  0.75000000  1
  Cu  Cu84  1  0.85381000  0.96615600  0.60519800  1
  Cu  Cu85  1  0.14619000  0.03384400  0.10519800  1
  Cu  Cu86  1  0.85381000  0.53384400  0.39480200  1
  Cu  Cu87  1  0.14619000  0.46615600  0.89480200  1
  Cu  Cu88  1  0.14619000  0.03384400  0.39480200  1
  Cu  Cu89  1  0.85381000  0.96615600  0.89480200  1
  Cu  Cu90  1  0.14619000  0.46615600  0.60519800  1
  Cu  Cu91  1  0.85381000  0.53384400  0.10519800  1
