# generated using pymatgen
data_Cu3Ni4C7
_symmetry_space_group_name_H-M   'P 1'
_cell_length_a   14.75759992
_cell_length_b   14.75759992
_cell_length_c   14.75759992
_cell_angle_alpha   168.50461484
_cell_angle_beta   168.50461484
_cell_angle_gamma   16.28443171
_symmetry_Int_Tables_number   1
_chemical_formula_structural   Cu3Ni4C7
_chemical_formula_sum   'Cu3 Ni4 C7'
_cell_volume   127.64140977
_cell_formula_units_Z   1
loop_
 _symmetry_equiv_pos_site_id
 _symmetry_equiv_pos_as_xyz
  1  'x, y, z'
loop_
 _atom_site_type_symbol
 _atom_site_label
 _atom_site_symmetry_multiplicity
 _atom_site_fract_x
 _atom_site_fract_y
 _atom_site_fract_z
 _atom_site_occupancy
  C  C0  1  0.07024100  0.07024100  0.00000000  1
  C  C1  1  0.92975900  0.92975900  0.00000000  1
  C  C2  1  0.50000000  0.50000000  0.00000000  1
  C  C3  1  0.64234100  0.64234100  0.00000000  1
  C  C4  1  0.21359200  0.21359200  0.00000000  1
  C  C5  1  0.78640800  0.78640800  0.00000000  1
  C  C6  1  0.35765900  0.35765900  0.00000000  1
  Ni  Ni7  1  0.14116900  0.14116900  0.00000000  1
  Ni  Ni8  1  0.71389500  0.71389500  0.00000000  1
  Ni  Ni9  1  0.28610500  0.28610500  0.00000000  1
  Ni  Ni10  1  0.85883100  0.85883100  0.00000000  1
  Cu  Cu11  1  0.56834400  0.56834400  0.00000000  1
  Cu  Cu12  1  0.43165600  0.43165600  0.00000000  1
  Cu  Cu13  1  0.00000000  0.00000000  0.00000000  1
