# generated using pymatgen
data_Cu6Ni2C51
_symmetry_space_group_name_H-M   'P 1'
_cell_length_a   13.93864784
_cell_length_b   13.93864784
_cell_length_c   13.93864747
_cell_angle_alpha   56.67735559
_cell_angle_beta   56.67735559
_cell_angle_gamma   56.67735739
_symmetry_Int_Tables_number   1
_chemical_formula_structural   Cu6Ni2C51
_chemical_formula_sum   'Cu12 Ni4 C102'
_cell_volume   1767.96694653
_cell_formula_units_Z   2
loop_
 _symmetry_equiv_pos_site_id
 _symmetry_equiv_pos_as_xyz
  1  'x, y, z'
loop_
 _atom_site_type_symbol
 _atom_site_label
 _atom_site_symmetry_multiplicity
 _atom_site_fract_x
 _atom_site_fract_y
 _atom_site_fract_z
 _atom_site_occupancy
  C  C0  1  0.81378100  0.68621900  0.25000000  1
  C  C1  1  0.25000000  0.81378100  0.68621900  1
  C  C2  1  0.68621900  0.25000000  0.81378100  1
  C  C3  1  0.75000000  0.18621900  0.31378100  1
  C  C4  1  0.31378100  0.75000000  0.18621900  1
  C  C5  1  0.18621900  0.31378100  0.75000000  1
  C  C6  1  0.50000000  0.50000000  0.00000000  1
  C  C7  1  0.00000000  0.50000000  0.50000000  1
  C  C8  1  0.50000000  0.00000000  0.50000000  1
  C  C9  1  0.50000000  0.00000000  0.00000000  1
  C  C10  1  0.00000000  0.50000000  0.00000000  1
  C  C11  1  0.00000000  0.00000000  0.50000000  1
  Ni  Ni12  1  0.36100900  0.36100900  0.36100900  1
  Ni  Ni13  1  0.86100900  0.86100900  0.86100900  1
  Ni  Ni14  1  0.63899100  0.63899100  0.63899100  1
  Ni  Ni15  1  0.13899100  0.13899100  0.13899100  1
  Cu  Cu16  1  0.17325300  0.75755200  0.02236000  1
  Cu  Cu17  1  0.02236000  0.17325300  0.75755200  1
  Cu  Cu18  1  0.75755200  0.02236000  0.17325300  1
  Cu  Cu19  1  0.52236000  0.25755200  0.67325300  1
  Cu  Cu20  1  0.67325300  0.52236000  0.25755200  1
  Cu  Cu21  1  0.25755200  0.67325300  0.52236000  1
  Cu  Cu22  1  0.82674700  0.24244800  0.97764000  1
  Cu  Cu23  1  0.97764000  0.82674700  0.24244800  1
  Cu  Cu24  1  0.24244800  0.97764000  0.82674700  1
  Cu  Cu25  1  0.47764000  0.74244800  0.32674700  1
  Cu  Cu26  1  0.32674700  0.47764000  0.74244800  1
  Cu  Cu27  1  0.74244800  0.32674700  0.47764000  1
  C  C28  1  0.21965800  0.24187500  0.53802700  1
  C  C29  1  0.53802700  0.21965800  0.24187500  1
  C  C30  1  0.24187500  0.53802700  0.21965800  1
  C  C31  1  0.03802700  0.74187500  0.71965800  1
  C  C32  1  0.71965800  0.03802700  0.74187500  1
  C  C33  1  0.74187500  0.71965800  0.03802700  1
  C  C34  1  0.78034200  0.75812500  0.46197300  1
  C  C35  1  0.46197300  0.78034200  0.75812500  1
  C  C36  1  0.75812500  0.46197300  0.78034200  1
  C  C37  1  0.96197300  0.25812500  0.28034200  1
  C  C38  1  0.28034200  0.96197300  0.25812500  1
  C  C39  1  0.25812500  0.28034200  0.96197300  1
  C  C40  1  0.48941600  0.53669100  0.73777700  1
  C  C41  1  0.73777700  0.48941600  0.53669100  1
  C  C42  1  0.53669100  0.73777700  0.48941600  1
  C  C43  1  0.23777700  0.03669100  0.98941600  1
  C  C44  1  0.98941600  0.23777700  0.03669100  1
  C  C45  1  0.03669100  0.98941600  0.23777700  1
  C  C46  1  0.51058400  0.46330900  0.26222300  1
  C  C47  1  0.26222300  0.51058400  0.46330900  1
  C  C48  1  0.46330900  0.26222300  0.51058400  1
  C  C49  1  0.76222300  0.96330900  0.01058400  1
  C  C50  1  0.01058400  0.76222300  0.96330900  1
  C  C51  1  0.96330900  0.01058400  0.76222300  1
  C  C52  1  0.03601600  0.27167500  0.20425800  1
  C  C53  1  0.20425800  0.03601600  0.27167500  1
  C  C54  1  0.27167500  0.20425800  0.03601600  1
  C  C55  1  0.70425800  0.77167500  0.53601600  1
  C  C56  1  0.53601600  0.70425800  0.77167500  1
  C  C57  1  0.77167500  0.53601600  0.70425800  1
  C  C58  1  0.96398400  0.72832500  0.79574200  1
  C  C59  1  0.79574200  0.96398400  0.72832500  1
  C  C60  1  0.72832500  0.79574200  0.96398400  1
  C  C61  1  0.29574200  0.22832500  0.46398400  1
  C  C62  1  0.46398400  0.29574200  0.22832500  1
  C  C63  1  0.22832500  0.46398400  0.29574200  1
  C  C64  1  0.25607900  0.42949400  0.49259700  1
  C  C65  1  0.49259700  0.25607900  0.42949400  1
  C  C66  1  0.42949400  0.49259700  0.25607900  1
  C  C67  1  0.99259700  0.92949400  0.75607900  1
  C  C68  1  0.75607900  0.99259700  0.92949400  1
  C  C69  1  0.92949400  0.75607900  0.99259700  1
  C  C70  1  0.74392100  0.57050600  0.50740300  1
  C  C71  1  0.50740300  0.74392100  0.57050600  1
  C  C72  1  0.57050600  0.50740300  0.74392100  1
  C  C73  1  0.00740300  0.07050600  0.24392100  1
  C  C74  1  0.24392100  0.00740300  0.07050600  1
  C  C75  1  0.07050600  0.24392100  0.00740300  1
  C  C76  1  0.08742700  0.26288800  0.65549700  1
  C  C77  1  0.65549700  0.08742700  0.26288800  1
  C  C78  1  0.26288800  0.65549700  0.08742700  1
  C  C79  1  0.15549700  0.76288800  0.58742700  1
  C  C80  1  0.58742700  0.15549700  0.76288800  1
  C  C81  1  0.76288800  0.58742700  0.15549700  1
  C  C82  1  0.91257300  0.73711200  0.34450300  1
  C  C83  1  0.34450300  0.91257300  0.73711200  1
  C  C84  1  0.73711200  0.34450300  0.91257300  1
  C  C85  1  0.84450300  0.23711200  0.41257300  1
  C  C86  1  0.41257300  0.84450300  0.23711200  1
  C  C87  1  0.23711200  0.41257300  0.84450300  1
  C  C88  1  0.75544400  0.34166700  0.56765600  1
  C  C89  1  0.56765600  0.75544400  0.34166700  1
  C  C90  1  0.34166700  0.56765600  0.75544400  1
  C  C91  1  0.06765600  0.84166700  0.25544400  1
  C  C92  1  0.25544400  0.06765600  0.84166700  1
  C  C93  1  0.84166700  0.25544400  0.06765600  1
  C  C94  1  0.24455600  0.65833300  0.43234400  1
  C  C95  1  0.43234400  0.24455600  0.65833300  1
  C  C96  1  0.65833300  0.43234400  0.24455600  1
  C  C97  1  0.93234400  0.15833300  0.74455600  1
  C  C98  1  0.74455600  0.93234400  0.15833300  1
  C  C99  1  0.15833300  0.74455600  0.93234400  1
  C  C100  1  0.70646900  0.46354400  0.37815900  1
  C  C101  1  0.37815900  0.70646900  0.46354400  1
  C  C102  1  0.46354400  0.37815900  0.70646900  1
  C  C103  1  0.87815900  0.96354400  0.20646900  1
  C  C104  1  0.20646900  0.87815900  0.96354400  1
  C  C105  1  0.96354400  0.20646900  0.87815900  1
  C  C106  1  0.29353100  0.53645600  0.62184100  1
  C  C107  1  0.62184100  0.29353100  0.53645600  1
  C  C108  1  0.53645600  0.62184100  0.29353100  1
  C  C109  1  0.12184100  0.03645600  0.79353100  1
  C  C110  1  0.79353100  0.12184100  0.03645600  1
  C  C111  1  0.03645600  0.79353100  0.12184100  1
  C  C112  1  0.03892700  0.46107300  0.25000000  1
  C  C113  1  0.25000000  0.03892700  0.46107300  1
  C  C114  1  0.46107300  0.25000000  0.03892700  1
  C  C115  1  0.75000000  0.96107300  0.53892700  1
  C  C116  1  0.53892700  0.75000000  0.96107300  1
  C  C117  1  0.96107300  0.53892700  0.75000000  1
