# generated using pymatgen
data_Cu2Ni2C7
_symmetry_space_group_name_H-M   'P 1'
_cell_length_a   7.03127300
_cell_length_b   7.03127300
_cell_length_c   25.55367100
_cell_angle_alpha   90.00000000
_cell_angle_beta   90.00000000
_cell_angle_gamma   90.00000000
_symmetry_Int_Tables_number   1
_chemical_formula_structural   Cu2Ni2C7
_chemical_formula_sum   'Cu16 Ni16 C56'
_cell_volume   1263.34282985
_cell_formula_units_Z   8
loop_
 _symmetry_equiv_pos_site_id
 _symmetry_equiv_pos_as_xyz
  1  'x, y, z'
loop_
 _atom_site_type_symbol
 _atom_site_label
 _atom_site_symmetry_multiplicity
 _atom_site_fract_x
 _atom_site_fract_y
 _atom_site_fract_z
 _atom_site_occupancy
  Ni  Ni0  1  0.11849500  0.63673000  0.88431100  1
  Ni  Ni1  1  0.12006200  0.21973700  0.00208000  1
  Ni  Ni2  1  0.19405500  0.54741600  0.24435500  1
  Ni  Ni3  1  0.20110300  0.26486100  0.63876500  1
  Ni  Ni4  1  0.21973700  0.87993800  0.75208000  1
  Ni  Ni5  1  0.26486100  0.79889700  0.38876500  1
  Ni  Ni6  1  0.36327000  0.11849500  0.13431100  1
  Ni  Ni7  1  0.45258400  0.19405500  0.49435500  1
  Ni  Ni8  1  0.54741600  0.80594500  0.99435500  1
  Ni  Ni9  1  0.63673000  0.88150500  0.63431100  1
  Ni  Ni10  1  0.73513900  0.20110300  0.88876500  1
  Ni  Ni11  1  0.78026300  0.12006200  0.25208000  1
  Ni  Ni12  1  0.79889700  0.73513900  0.13876500  1
  Ni  Ni13  1  0.80594500  0.45258400  0.74435500  1
  Ni  Ni14  1  0.87993800  0.78026300  0.50208000  1
  Ni  Ni15  1  0.88150500  0.36327000  0.38431100  1
  Cu  Cu16  1  0.04866600  0.71117500  0.02071400  1
  Cu  Cu17  1  0.13695600  0.74718200  0.62208300  1
  Cu  Cu18  1  0.25281800  0.13695600  0.87208300  1
  Cu  Cu19  1  0.28882500  0.04866600  0.27071400  1
  Cu  Cu20  1  0.28023900  0.65334500  0.11844200  1
  Cu  Cu21  1  0.30522900  0.37306400  0.77598500  1
  Cu  Cu22  1  0.34665500  0.28023900  0.36844200  1
  Cu  Cu23  1  0.37306400  0.69477100  0.52598500  1
  Cu  Cu24  1  0.62693600  0.30522900  0.02598500  1
  Cu  Cu25  1  0.65334500  0.71976100  0.86844200  1
  Cu  Cu26  1  0.69477100  0.62693600  0.27598500  1
  Cu  Cu27  1  0.71976100  0.34665500  0.61844200  1
  Cu  Cu28  1  0.71117500  0.95133400  0.77071400  1
  Cu  Cu29  1  0.74718200  0.86304400  0.37208300  1
  Cu  Cu30  1  0.86304400  0.25281800  0.12208300  1
  Cu  Cu31  1  0.95133400  0.28882500  0.52071400  1
  C  C32  1  0.01723300  0.55853900  0.97902800  1
  C  C33  1  0.03975100  0.17930000  0.09214800  1
  C  C34  1  0.08534600  0.26146400  0.89207900  1
  C  C35  1  0.09993900  0.60148800  0.66464300  1
  C  C36  1  0.12839100  0.18090600  0.25182600  1
  C  C37  1  0.13609200  0.21319700  0.54589700  1
  C  C38  1  0.14314100  0.77200300  0.15328700  1
  C  C39  1  0.15973700  0.59063900  0.06663600  1
  C  C40  1  0.16518200  0.52913700  0.79423800  1
  C  C41  1  0.17930000  0.96024900  0.84214800  1
  C  C42  1  0.18090600  0.87160900  0.00182600  1
  C  C43  1  0.20390800  0.22435600  0.74100000  1
  C  C44  1  0.21319700  0.86390800  0.29589700  1
  C  C45  1  0.22097600  0.44626400  0.34878900  1
  C  C46  1  0.22435600  0.79609200  0.49100000  1
  C  C47  1  0.22799700  0.14314100  0.40328700  1
  C  C48  1  0.26222300  0.62770100  0.57910200  1
  C  C49  1  0.26146400  0.91465400  0.64207900  1
  C  C50  1  0.34081000  0.46874100  0.14504200  1
  C  C51  1  0.37229900  0.26222300  0.82910200  1
  C  C52  1  0.39851200  0.09993900  0.91464300  1
  C  C53  1  0.40936100  0.15973700  0.31663600  1
  C  C54  1  0.44146100  0.01723300  0.22902800  1
  C  C55  1  0.46874100  0.65919000  0.89504200  1
  C  C56  1  0.47086300  0.16518200  0.04423800  1
  C  C57  1  0.44626400  0.77902400  0.09878900  1
  C  C58  1  0.45573500  0.51370200  0.50275500  1
  C  C59  1  0.48629800  0.45573500  0.75275500  1
  C  C60  1  0.51370200  0.54426500  0.25275500  1
  C  C61  1  0.54426500  0.48629800  0.00275500  1
  C  C62  1  0.55373600  0.22097600  0.59878900  1
  C  C63  1  0.52913700  0.83481800  0.54423800  1
  C  C64  1  0.53125900  0.34081000  0.39504200  1
  C  C65  1  0.55853900  0.98276700  0.72902800  1
  C  C66  1  0.59063900  0.84026300  0.81663600  1
  C  C67  1  0.60148800  0.90006100  0.41464300  1
  C  C68  1  0.62770100  0.73777700  0.32910200  1
  C  C69  1  0.65919000  0.53125900  0.64504200  1
  C  C70  1  0.73853600  0.08534600  0.14207900  1
  C  C71  1  0.73777700  0.37229900  0.07910200  1
  C  C72  1  0.77200300  0.85685900  0.90328700  1
  C  C73  1  0.77564400  0.20390800  0.99100000  1
  C  C74  1  0.77902400  0.55373600  0.84878900  1
  C  C75  1  0.78680300  0.13609200  0.79589700  1
  C  C76  1  0.79609200  0.77564400  0.24100000  1
  C  C77  1  0.81909400  0.12839100  0.50182600  1
  C  C78  1  0.82070000  0.03975100  0.34214800  1
  C  C79  1  0.83481800  0.47086300  0.29423800  1
  C  C80  1  0.84026300  0.40936100  0.56663600  1
  C  C81  1  0.85685900  0.22799700  0.65328700  1
  C  C82  1  0.86390800  0.78680300  0.04589700  1
  C  C83  1  0.87160900  0.81909400  0.75182600  1
  C  C84  1  0.90006100  0.39851200  0.16464300  1
  C  C85  1  0.91465400  0.73853600  0.39207900  1
  C  C86  1  0.96024900  0.82070000  0.59214800  1
  C  C87  1  0.98276700  0.44146100  0.47902800  1
