# generated using pymatgen
data_CuNi2C19
_symmetry_space_group_name_H-M   'P 1'
_cell_length_a   7.57173064
_cell_length_b   7.56374018
_cell_length_c   7.36898142
_cell_angle_alpha   60.91932847
_cell_angle_beta   60.81079408
_cell_angle_gamma   58.26987746
_symmetry_Int_Tables_number   1
_chemical_formula_structural   CuNi2C19
_chemical_formula_sum   'Cu1 Ni2 C19'
_cell_volume   298.01567403
_cell_formula_units_Z   1
loop_
 _symmetry_equiv_pos_site_id
 _symmetry_equiv_pos_as_xyz
  1  'x, y, z'
loop_
 _atom_site_type_symbol
 _atom_site_label
 _atom_site_symmetry_multiplicity
 _atom_site_fract_x
 _atom_site_fract_y
 _atom_site_fract_z
 _atom_site_occupancy
  Ni  Ni0  1  0.25000000  0.25000000  0.25000000  1
  Ni  Ni1  1  0.75000000  0.75000000  0.75000000  1
  Cu  Cu2  1  0.50000000  0.50000000  0.50000000  1
  C  C3  1  0.00000000  0.00000000  0.00000000  1
  C  C4  1  0.80131900  0.19868100  0.80131900  1
  C  C5  1  0.19868100  0.80131900  0.19868100  1
  C  C6  1  0.77949300  0.77949300  0.22050700  1
  C  C7  1  0.22050700  0.22050700  0.77949300  1
  C  C8  1  0.80127600  0.19872400  0.19872400  1
  C  C9  1  0.19872400  0.80127600  0.80127600  1
  C  C10  1  0.16354200  0.64060700  0.83645800  1
  C  C11  1  0.83645800  0.35939300  0.16354200  1
  C  C12  1  0.64060700  0.16354200  0.35939300  1
  C  C13  1  0.61487300  0.82014400  0.17985600  1
  C  C14  1  0.82014400  0.61487300  0.38512700  1
  C  C15  1  0.17985600  0.38512700  0.61487300  1
  C  C16  1  0.36450500  0.63549500  0.15786800  1
  C  C17  1  0.84213200  0.15786800  0.63549500  1
  C  C18  1  0.15786800  0.84213200  0.36450500  1
  C  C19  1  0.63549500  0.36450500  0.84213200  1
  C  C20  1  0.38512700  0.17985600  0.82014400  1
  C  C21  1  0.35939300  0.83645800  0.64060700  1
