# generated using pymatgen
data_Cu6Ni3C31
_symmetry_space_group_name_H-M   'P 1'
_cell_length_a   8.51566600
_cell_length_b   8.63150588
_cell_length_c   8.66443522
_cell_angle_alpha   63.69448426
_cell_angle_beta   65.25680212
_cell_angle_gamma   64.52298080
_symmetry_Int_Tables_number   1
_chemical_formula_structural   Cu6Ni3C31
_chemical_formula_sum   'Cu6 Ni3 C31'
_cell_volume   494.53051203
_cell_formula_units_Z   1
loop_
 _symmetry_equiv_pos_site_id
 _symmetry_equiv_pos_as_xyz
  1  'x, y, z'
loop_
 _atom_site_type_symbol
 _atom_site_label
 _atom_site_symmetry_multiplicity
 _atom_site_fract_x
 _atom_site_fract_y
 _atom_site_fract_z
 _atom_site_occupancy
  C  C0  1  0.98945200  0.97801500  0.02834900  1
  C  C1  1  0.15951700  0.37262200  0.74285600  1
  C  C2  1  0.53533900  0.51587200  0.47066100  1
  C  C3  1  0.86059600  0.68349200  0.22853400  1
  C  C4  1  0.21321000  0.86575500  0.67438100  1
  C  C5  1  0.68195200  0.21128100  0.86530800  1
  C  C6  1  0.84633600  0.83613600  0.84655000  1
  Ni  Ni7  1  0.14847300  0.14668400  0.14463000  1
  Ni  Ni8  1  0.35999100  0.35296400  0.36274800  1
  Ni  Ni9  1  0.65667600  0.66586800  0.66791700  1
  Cu  Cu10  1  0.74148900  0.41871200  0.06970100  1
  Cu  Cu11  1  0.07864600  0.74535900  0.41365500  1
  Cu  Cu12  1  0.42585500  0.06246700  0.75265900  1
  Cu  Cu13  1  0.55534400  0.96139200  0.24856900  1
  Cu  Cu14  1  0.96086300  0.24290200  0.55828300  1
  Cu  Cu15  1  0.23745400  0.55265200  0.95392700  1
  C  C16  1  0.29613500  0.49083400  0.12323800  1
  C  C17  1  0.50531300  0.10201900  0.34003900  1
  C  C18  1  0.90626600  0.24116100  0.09036500  1
  C  C19  1  0.10838300  0.31155800  0.55217600  1
  C  C20  1  0.60245200  0.41302700  0.25978900  1
  C  C21  1  0.79769500  0.58915700  0.00261200  1
  C  C22  1  0.10774100  0.90275300  0.23059800  1
  C  C23  1  0.26691700  0.59103800  0.41876500  1
  C  C24  1  0.41978200  0.25695300  0.60673600  1
  C  C25  1  0.40530700  0.02237900  0.15948800  1
  C  C26  1  0.73806100  0.95940900  0.10083600  1
  C  C27  1  0.03302900  0.19815200  0.38170400  1
  C  C28  1  0.02645400  0.80218400  0.57599800  1
  C  C29  1  0.23979900  0.10377300  0.89905600  1
  C  C30  1  0.59525400  0.00047300  0.81026700  1
  C  C31  1  0.57351300  0.76679300  0.38573200  1
  C  C32  1  0.76964500  0.38116400  0.57748700  1
  C  C33  1  0.95154900  0.07093500  0.72757700  1
  C  C34  1  0.18100900  0.39763300  0.96368200  1
  C  C35  1  0.38052600  0.59458700  0.77092000  1
  C  C36  1  0.94449500  0.67841500  0.40352400  1
  C  C37  1  0.07173800  0.72753600  0.95623200  1
  C  C38  1  0.41061100  0.92964800  0.69108800  1
  C  C39  1  0.66613100  0.40725000  0.94336600  1
