# generated using pymatgen
data_CuNiC
_symmetry_space_group_name_H-M   'P 1'
_cell_length_a   5.70915000
_cell_length_b   5.73819700
_cell_length_c   14.87993100
_cell_angle_alpha   90.00000000
_cell_angle_beta   90.00000000
_cell_angle_gamma   90.00000000
_symmetry_Int_Tables_number   1
_chemical_formula_structural   CuNiC
_chemical_formula_sum   'Cu8 Ni8 C8'
_cell_volume   487.46992329
_cell_formula_units_Z   8
loop_
 _symmetry_equiv_pos_site_id
 _symmetry_equiv_pos_as_xyz
  1  'x, y, z'
loop_
 _atom_site_type_symbol
 _atom_site_label
 _atom_site_symmetry_multiplicity
 _atom_site_fract_x
 _atom_site_fract_y
 _atom_site_fract_z
 _atom_site_occupancy
  Ni  Ni0  1  0.86869000  0.71947700  0.57425700  1
  Ni  Ni1  1  0.86869000  0.78052300  0.42574300  1
  Ni  Ni2  1  0.63131000  0.28052300  0.07425700  1
  Ni  Ni3  1  0.36868900  0.71947700  0.92574300  1
  Ni  Ni4  1  0.36868900  0.78052300  0.07425700  1
  Ni  Ni5  1  0.13131000  0.21947700  0.57425700  1
  Ni  Ni6  1  0.13131000  0.28052300  0.42574300  1
  Ni  Ni7  1  0.63131000  0.21947700  0.92574300  1
  C  C8  1  0.75074700  0.15971700  0.39808700  1
  C  C9  1  0.75074700  0.34028300  0.60191300  1
  C  C10  1  0.74925300  0.65971700  0.10191300  1
  C  C11  1  0.74925300  0.84028300  0.89808700  1
  C  C12  1  0.24925300  0.84028300  0.60191300  1
  C  C13  1  0.24925300  0.65971700  0.39808700  1
  C  C14  1  0.25074700  0.34028300  0.89808700  1
  C  C15  1  0.25074700  0.15971700  0.10191300  1
  Cu  Cu16  1  0.36245200  0.45379300  0.64046800  1
  Cu  Cu17  1  0.13754800  0.54620700  0.14046800  1
  Cu  Cu18  1  0.13754800  0.95379300  0.85953200  1
  Cu  Cu19  1  0.63754800  0.95379300  0.64046800  1
  Cu  Cu20  1  0.86245200  0.04620700  0.14046800  1
  Cu  Cu21  1  0.86245200  0.45379300  0.85953200  1
  Cu  Cu22  1  0.36245200  0.04620700  0.35953200  1
  Cu  Cu23  1  0.63754800  0.54620700  0.35953200  1
