# generated using pymatgen
data_Cu10Ni2C9
_symmetry_space_group_name_H-M   'P 1'
_cell_length_a   6.56898600
_cell_length_b   8.88047100
_cell_length_c   15.88971100
_cell_angle_alpha   90.00000000
_cell_angle_beta   90.00000000
_cell_angle_gamma   90.00000000
_symmetry_Int_Tables_number   1
_chemical_formula_structural   Cu10Ni2C9
_chemical_formula_sum   'Cu40 Ni8 C36'
_cell_volume   926.93724988
_cell_formula_units_Z   4
loop_
 _symmetry_equiv_pos_site_id
 _symmetry_equiv_pos_as_xyz
  1  'x, y, z'
loop_
 _atom_site_type_symbol
 _atom_site_label
 _atom_site_symmetry_multiplicity
 _atom_site_fract_x
 _atom_site_fract_y
 _atom_site_fract_z
 _atom_site_occupancy
  C  C0  1  0.75000000  0.83099800  0.75000000  1
  C  C1  1  0.25000000  0.66900200  0.25000000  1
  C  C2  1  0.25000000  0.16900200  0.25000000  1
  C  C3  1  0.75000000  0.33099800  0.75000000  1
  C  C4  1  0.02167200  0.98812200  0.70973900  1
  C  C5  1  0.47832800  0.98812200  0.79026100  1
  C  C6  1  0.97832800  0.51187800  0.20973900  1
  C  C7  1  0.52167200  0.51187800  0.29026100  1
  C  C8  1  0.97832800  0.01187800  0.29026100  1
  C  C9  1  0.52167200  0.01187800  0.20973900  1
  C  C10  1  0.02167200  0.48812200  0.79026100  1
  C  C11  1  0.47832800  0.48812200  0.70973900  1
  C  C12  1  0.00649000  0.96007400  0.81195200  1
  C  C13  1  0.49351000  0.96007400  0.68804800  1
  C  C14  1  0.99351000  0.53992600  0.31195200  1
  C  C15  1  0.50649000  0.53992600  0.18804800  1
  C  C16  1  0.99351000  0.03992600  0.18804800  1
  C  C17  1  0.50649000  0.03992600  0.31195200  1
  C  C18  1  0.00649000  0.46007400  0.68804800  1
  C  C19  1  0.49351000  0.46007400  0.81195200  1
  C  C20  1  0.86357500  0.18187300  0.86502400  1
  C  C21  1  0.63642500  0.18187300  0.63497600  1
  C  C22  1  0.13642500  0.31812700  0.36502400  1
  C  C23  1  0.36357500  0.31812700  0.13497600  1
  C  C24  1  0.13642500  0.81812700  0.13497600  1
  C  C25  1  0.36357500  0.81812700  0.36502400  1
  C  C26  1  0.86357500  0.68187300  0.63497600  1
  C  C27  1  0.63642500  0.68187300  0.86502400  1
  C  C28  1  0.61639500  0.19628900  0.85864100  1
  C  C29  1  0.88360500  0.19628900  0.64135900  1
  C  C30  1  0.38360500  0.30371100  0.35864100  1
  C  C31  1  0.11639500  0.30371100  0.14135900  1
  C  C32  1  0.38360500  0.80371100  0.14135900  1
  C  C33  1  0.11639500  0.80371100  0.35864100  1
  C  C34  1  0.61639500  0.69628900  0.64135900  1
  C  C35  1  0.88360500  0.69628900  0.85864100  1
  Ni  Ni36  1  0.26356600  0.06882400  0.95592100  1
  Ni  Ni37  1  0.23643400  0.06882400  0.54407900  1
  Ni  Ni38  1  0.73643400  0.43117600  0.45592100  1
  Ni  Ni39  1  0.76356600  0.43117600  0.04407900  1
  Ni  Ni40  1  0.73643400  0.93117600  0.04407900  1
  Ni  Ni41  1  0.76356600  0.93117600  0.45592100  1
  Ni  Ni42  1  0.26356600  0.56882400  0.54407900  1
  Ni  Ni43  1  0.23643400  0.56882400  0.95592100  1
  Cu  Cu44  1  0.40226000  0.11758100  0.85926800  1
  Cu  Cu45  1  0.09774000  0.11758100  0.64073200  1
  Cu  Cu46  1  0.59774000  0.38241900  0.35926800  1
  Cu  Cu47  1  0.90226000  0.38241900  0.14073200  1
  Cu  Cu48  1  0.59774000  0.88241900  0.14073200  1
  Cu  Cu49  1  0.90226000  0.88241900  0.35926800  1
  Cu  Cu50  1  0.40226000  0.61758100  0.64073200  1
  Cu  Cu51  1  0.09774000  0.61758100  0.85926800  1
  Cu  Cu52  1  0.01384700  0.03242800  0.90590200  1
  Cu  Cu53  1  0.48615300  0.03242800  0.59409800  1
  Cu  Cu54  1  0.98615300  0.46757200  0.40590200  1
  Cu  Cu55  1  0.51384700  0.46757200  0.09409800  1
  Cu  Cu56  1  0.98615300  0.96757200  0.09409800  1
  Cu  Cu57  1  0.51384700  0.96757200  0.40590200  1
  Cu  Cu58  1  0.01384700  0.53242800  0.59409800  1
  Cu  Cu59  1  0.48615300  0.53242800  0.90590200  1
  Cu  Cu60  1  0.35661600  0.87579600  0.97096300  1
  Cu  Cu61  1  0.14338400  0.87579600  0.52903700  1
  Cu  Cu62  1  0.64338400  0.62420400  0.47096300  1
  Cu  Cu63  1  0.85661600  0.62420400  0.02903700  1
  Cu  Cu64  1  0.64338400  0.12420400  0.02903700  1
  Cu  Cu65  1  0.85661600  0.12420400  0.47096300  1
  Cu  Cu66  1  0.35661600  0.37579600  0.52903700  1
  Cu  Cu67  1  0.14338400  0.37579600  0.97096300  1
  Cu  Cu68  1  0.96524500  0.92105400  0.75489600  1
  Cu  Cu69  1  0.53475500  0.92105400  0.74510400  1
  Cu  Cu70  1  0.03475500  0.57894600  0.25489600  1
  Cu  Cu71  1  0.46524500  0.57894600  0.24510400  1
  Cu  Cu72  1  0.03475500  0.07894600  0.24510400  1
  Cu  Cu73  1  0.46524500  0.07894600  0.25489600  1
  Cu  Cu74  1  0.96524500  0.42105400  0.74510400  1
  Cu  Cu75  1  0.53475500  0.42105400  0.75489600  1
  Cu  Cu76  1  0.75085100  0.24348900  0.84083400  1
  Cu  Cu77  1  0.74914900  0.24348900  0.65916600  1
  Cu  Cu78  1  0.24914900  0.25651100  0.34083400  1
  Cu  Cu79  1  0.25085100  0.25651100  0.15916600  1
  Cu  Cu80  1  0.24914900  0.75651100  0.15916600  1
  Cu  Cu81  1  0.25085100  0.75651100  0.34083400  1
  Cu  Cu82  1  0.75085100  0.74348900  0.65916600  1
  Cu  Cu83  1  0.74914900  0.74348900  0.84083400  1
