# generated using pymatgen
data_CuNi4C3
_symmetry_space_group_name_H-M   'P 1'
_cell_length_a   13.31976700
_cell_length_b   5.11787900
_cell_length_c   11.28037439
_cell_angle_alpha   89.66798317
_cell_angle_beta   90.00000000
_cell_angle_gamma   90.00000000
_symmetry_Int_Tables_number   1
_chemical_formula_structural   CuNi4C3
_chemical_formula_sum   'Cu8 Ni32 C24'
_cell_volume   768.95843284
_cell_formula_units_Z   8
loop_
 _symmetry_equiv_pos_site_id
 _symmetry_equiv_pos_as_xyz
  1  'x, y, z'
loop_
 _atom_site_type_symbol
 _atom_site_label
 _atom_site_symmetry_multiplicity
 _atom_site_fract_x
 _atom_site_fract_y
 _atom_site_fract_z
 _atom_site_occupancy
  C  C0  1  0.77012500  0.21182800  0.82014100  1
  C  C1  1  0.22987500  0.21182800  0.32014100  1
  C  C2  1  0.75719700  0.67240900  0.18562100  1
  C  C3  1  0.24280300  0.67240900  0.68562100  1
  C  C4  1  0.35734300  0.78505400  0.89425500  1
  C  C5  1  0.64265700  0.78505400  0.39425500  1
  C  C6  1  0.22394100  0.79086500  0.18619500  1
  C  C7  1  0.77605900  0.79086500  0.68619500  1
  C  C8  1  0.48030200  0.21891600  0.83064300  1
  C  C9  1  0.51969800  0.21891600  0.33064300  1
  C  C10  1  0.01863700  0.28391100  0.32911300  1
  C  C11  1  0.98136300  0.28391100  0.82911300  1
  C  C12  1  0.01511500  0.71609600  0.16927900  1
  C  C13  1  0.98488500  0.71609600  0.66927900  1
  C  C14  1  0.47602400  0.78690900  0.66201600  1
  C  C15  1  0.52397600  0.78690900  0.16201600  1
  C  C16  1  0.87688300  0.20627400  0.09186300  1
  C  C17  1  0.12311700  0.20627400  0.59186300  1
  C  C18  1  0.61903700  0.28938200  0.59545200  1
  C  C19  1  0.38096300  0.28938200  0.09545200  1
  C  C20  1  0.62036200  0.70503500  0.90262000  1
  C  C21  1  0.37963800  0.70503500  0.40262000  1
  C  C22  1  0.88205900  0.80681800  0.40875800  1
  C  C23  1  0.11794100  0.80681800  0.90875800  1
  Ni  Ni24  1  0.90752500  0.10101200  0.39038300  1
  Ni  Ni25  1  0.09247500  0.10101200  0.89038300  1
  Ni  Ni26  1  0.52847100  0.15005000  0.66068500  1
  Ni  Ni27  1  0.47152900  0.15005000  0.16068500  1
  Ni  Ni28  1  0.71749600  0.19779700  0.64629800  1
  Ni  Ni29  1  0.28250400  0.19779700  0.14629800  1
  Ni  Ni30  1  0.39278800  0.20453900  0.96295200  1
  Ni  Ni31  1  0.60721200  0.20453900  0.46295200  1
  Ni  Ni32  1  0.88822500  0.23273500  0.95454700  1
  Ni  Ni33  1  0.11177500  0.23273500  0.45454700  1
  Ni  Ni34  1  0.77838900  0.31899900  0.12983800  1
  Ni  Ni35  1  0.22161100  0.31899900  0.62983800  1
  Ni  Ni36  1  0.03214900  0.35544600  0.65153900  1
  Ni  Ni37  1  0.96785100  0.35544600  0.15153900  1
  Ni  Ni38  1  0.60413100  0.40936700  0.87382800  1
  Ni  Ni39  1  0.39586900  0.40936700  0.37382800  1
  Ni  Ni40  1  0.40024600  0.59209900  0.10414300  1
  Ni  Ni41  1  0.59975400  0.59209900  0.60414300  1
  Ni  Ni42  1  0.96566100  0.64862800  0.34210500  1
  Ni  Ni43  1  0.03433900  0.64862800  0.84210500  1
  Ni  Ni44  1  0.77932100  0.73806100  0.36247000  1
  Ni  Ni45  1  0.22067900  0.73806100  0.86247000  1
  Ni  Ni46  1  0.88972900  0.73898500  0.54338100  1
  Ni  Ni47  1  0.11027100  0.73898500  0.04338100  1
  Ni  Ni48  1  0.61506300  0.73840300  0.04094200  1
  Ni  Ni49  1  0.38493700  0.73840300  0.54094200  1
  Ni  Ni50  1  0.71624700  0.81524300  0.85264400  1
  Ni  Ni51  1  0.28375300  0.81524300  0.35264400  1
  Ni  Ni52  1  0.52576800  0.85217400  0.85244800  1
  Ni  Ni53  1  0.47423200  0.85217400  0.35244800  1
  Ni  Ni54  1  0.89201400  0.91002900  0.12730000  1
  Ni  Ni55  1  0.10798600  0.91002900  0.62730000  1
  Cu  Cu56  1  0.90758200  0.00152900  0.74541200  1
  Cu  Cu57  1  0.37099300  0.99321000  0.74939100  1
  Cu  Cu58  1  0.62900700  0.99321000  0.24939100  1
  Cu  Cu59  1  0.09241800  0.00152900  0.24541200  1
  Cu  Cu60  1  0.41062200  0.51486500  0.76076200  1
  Cu  Cu61  1  0.86872200  0.50300600  0.75166000  1
  Cu  Cu62  1  0.58937800  0.51486500  0.26076200  1
  Cu  Cu63  1  0.13127800  0.50300600  0.25166000  1
