# generated using pymatgen
data_Cu2Ni7C12
_symmetry_space_group_name_H-M   'P 1'
_cell_length_a   5.94035965
_cell_length_b   5.94035965
_cell_length_c   13.39883500
_cell_angle_alpha   77.34186773
_cell_angle_beta   77.34186773
_cell_angle_gamma   89.97581569
_symmetry_Int_Tables_number   1
_chemical_formula_structural   Cu2Ni7C12
_chemical_formula_sum   'Cu4 Ni14 C24'
_cell_volume   449.54907458
_cell_formula_units_Z   2
loop_
 _symmetry_equiv_pos_site_id
 _symmetry_equiv_pos_as_xyz
  1  'x, y, z'
loop_
 _atom_site_type_symbol
 _atom_site_label
 _atom_site_symmetry_multiplicity
 _atom_site_fract_x
 _atom_site_fract_y
 _atom_site_fract_z
 _atom_site_occupancy
  Ni  Ni0  1  0.00000000  0.50000000  0.00000000  1
  Ni  Ni1  1  0.50000000  0.50000000  0.00000000  1
  Ni  Ni2  1  0.16649700  0.16490000  0.16362000  1
  Ni  Ni3  1  0.16679000  0.67266600  0.16324000  1
  Ni  Ni4  1  0.62611400  0.37388600  0.25000000  1
  Ni  Ni5  1  0.83510000  0.83350300  0.33638000  1
  Ni  Ni6  1  0.32733400  0.83321000  0.33676000  1
  Ni  Ni7  1  0.50000000  0.50000000  0.50000000  1
  Ni  Ni8  1  0.50000000  0.00000000  0.50000000  1
  Ni  Ni9  1  0.67266600  0.16679000  0.66324000  1
  Ni  Ni10  1  0.16490000  0.16649700  0.66362000  1
  Ni  Ni11  1  0.37388600  0.62611400  0.75000000  1
  Ni  Ni12  1  0.83350300  0.83510000  0.83638000  1
  Ni  Ni13  1  0.83321000  0.32733400  0.83676000  1
  Cu  Cu14  1  0.29737300  0.04314200  0.91381600  1
  Cu  Cu15  1  0.70262700  0.95685800  0.08618400  1
  Cu  Cu16  1  0.04314200  0.29737300  0.41381600  1
  Cu  Cu17  1  0.95685800  0.70262700  0.58618400  1
  C  C18  1  0.26305700  0.23618500  0.99040100  1
  C  C19  1  0.26320000  0.77372600  0.99011700  1
  C  C20  1  0.73694300  0.76381500  0.00959900  1
  C  C21  1  0.73680000  0.22627400  0.00988300  1
  C  C22  1  0.43536000  0.91853700  0.16271900  1
  C  C23  1  0.89806300  0.91962700  0.16061400  1
  C  C24  1  0.41734400  0.42219600  0.15555100  1
  C  C25  1  0.92664400  0.41998000  0.16022700  1
  C  C26  1  0.58002000  0.07335600  0.33977300  1
  C  C27  1  0.57780400  0.58265600  0.34444900  1
  C  C28  1  0.08037300  0.10193700  0.33938600  1
  C  C29  1  0.08146300  0.56464000  0.33728100  1
  C  C30  1  0.23618500  0.26305700  0.49040100  1
  C  C31  1  0.77372600  0.26320000  0.49011700  1
  C  C32  1  0.22627400  0.73680000  0.50988300  1
  C  C33  1  0.76381500  0.73694300  0.50959900  1
  C  C34  1  0.91962700  0.89806300  0.66061400  1
  C  C35  1  0.91853700  0.43536000  0.66271900  1
  C  C36  1  0.41998000  0.92664400  0.66022700  1
  C  C37  1  0.42219600  0.41734400  0.65555100  1
  C  C38  1  0.58265600  0.57780400  0.84444900  1
  C  C39  1  0.07335600  0.58002000  0.83977300  1
  C  C40  1  0.56464000  0.08146300  0.83728100  1
  C  C41  1  0.10193700  0.08037300  0.83938600  1
