# generated using pymatgen
data_Cu2NiC4
_symmetry_space_group_name_H-M   'P 1'
_cell_length_a   4.86922800
_cell_length_b   5.61676500
_cell_length_c   10.02387800
_cell_angle_alpha   90.00000000
_cell_angle_beta   90.00000000
_cell_angle_gamma   90.00000000
_symmetry_Int_Tables_number   1
_chemical_formula_structural   Cu2NiC4
_chemical_formula_sum   'Cu8 Ni4 C16'
_cell_volume   274.14614088
_cell_formula_units_Z   4
loop_
 _symmetry_equiv_pos_site_id
 _symmetry_equiv_pos_as_xyz
  1  'x, y, z'
loop_
 _atom_site_type_symbol
 _atom_site_label
 _atom_site_symmetry_multiplicity
 _atom_site_fract_x
 _atom_site_fract_y
 _atom_site_fract_z
 _atom_site_occupancy
  Ni  Ni0  1  0.35481300  0.00000000  0.50000000  1
  Ni  Ni1  1  0.64518700  0.50000000  0.00000000  1
  Ni  Ni2  1  0.03013900  0.00000000  0.00000000  1
  Ni  Ni3  1  0.96986100  0.50000000  0.50000000  1
  Cu  Cu4  1  0.00840000  0.50000000  0.24084100  1
  Cu  Cu5  1  0.00840000  0.50000000  0.75915900  1
  Cu  Cu6  1  0.99160000  0.00000000  0.25915900  1
  Cu  Cu7  1  0.99160000  0.00000000  0.74084100  1
  Cu  Cu8  1  0.50000000  0.25000000  0.25000000  1
  Cu  Cu9  1  0.50000000  0.75000000  0.75000000  1
  Cu  Cu10  1  0.50000000  0.75000000  0.25000000  1
  Cu  Cu11  1  0.50000000  0.25000000  0.75000000  1
  C  C12  1  0.34925400  0.50000000  0.14549000  1
  C  C13  1  0.34925400  0.50000000  0.85451000  1
  C  C14  1  0.65074600  0.00000000  0.35451000  1
  C  C15  1  0.65074600  0.00000000  0.64549000  1
  C  C16  1  0.68408500  0.50000000  0.34655100  1
  C  C17  1  0.68408500  0.50000000  0.65344900  1
  C  C18  1  0.31591500  0.00000000  0.15344900  1
  C  C19  1  0.31591500  0.00000000  0.84655100  1
  C  C20  1  0.16601400  0.25160700  0.35804200  1
  C  C21  1  0.16601400  0.74839300  0.64195800  1
  C  C22  1  0.83398600  0.75160700  0.14195800  1
  C  C23  1  0.83398600  0.24839300  0.85804200  1
  C  C24  1  0.83398600  0.24839300  0.14195800  1
  C  C25  1  0.83398600  0.75160700  0.85804200  1
  C  C26  1  0.16601400  0.74839300  0.35804200  1
  C  C27  1  0.16601400  0.25160700  0.64195800  1
