# generated using pymatgen
data_Cu(NiC12)3
_symmetry_space_group_name_H-M   'P 1'
_cell_length_a   8.53711100
_cell_length_b   8.57713430
_cell_length_c   8.57675333
_cell_angle_alpha   61.57418739
_cell_angle_beta   61.56032363
_cell_angle_gamma   61.54343773
_symmetry_Int_Tables_number   1
_chemical_formula_structural   Cu(NiC12)3
_chemical_formula_sum   'Cu1 Ni3 C36'
_cell_volume   459.61727743
_cell_formula_units_Z   1
loop_
 _symmetry_equiv_pos_site_id
 _symmetry_equiv_pos_as_xyz
  1  'x, y, z'
loop_
 _atom_site_type_symbol
 _atom_site_label
 _atom_site_symmetry_multiplicity
 _atom_site_fract_x
 _atom_site_fract_y
 _atom_site_fract_z
 _atom_site_occupancy
  C  C0  1  0.02647100  0.00349100  0.99528200  1
  C  C1  1  0.75001400  0.14797900  0.35114800  1
  C  C2  1  0.47262400  0.50447200  0.49605100  1
  C  C3  1  0.24998700  0.85014200  0.65434300  1
  C  C4  1  0.65541300  0.24988700  0.84631400  1
  C  C5  1  0.84915000  0.65765100  0.24816100  1
  Ni  Ni6  1  0.14151200  0.14543300  0.13873000  1
  Ni  Ni7  1  0.35917400  0.36145900  0.35531600  1
  Ni  Ni8  1  0.64383000  0.64535500  0.64489800  1
  Cu  Cu9  1  0.85315000  0.85161400  0.85176100  1
  C  C10  1  0.04880600  0.75084700  0.44818200  1
  C  C11  1  0.44892900  0.04954100  0.74955400  1
  C  C12  1  0.75012200  0.45235900  0.04560600  1
  C  C13  1  0.25074700  0.54137100  0.95975700  1
  C  C14  1  0.54296700  0.96320700  0.25122900  1
  C  C15  1  0.95806400  0.25042000  0.53754300  1
  C  C16  1  0.13041500  0.28994300  0.49823100  1
  C  C17  1  0.29851300  0.51328000  0.12227600  1
  C  C18  1  0.04782900  0.92226400  0.26576900  1
  C  C19  1  0.53139900  0.12224500  0.29657400  1
  C  C20  1  0.23898700  0.59257600  0.42976600  1
  C  C21  1  0.01528000  0.80828500  0.61069500  1
  C  C22  1  0.25844400  0.07226500  0.90677900  1
  C  C23  1  0.45411800  0.23176900  0.57786000  1
  C  C24  1  0.59302100  0.43249900  0.23970800  1
  C  C25  1  0.20222800  0.37926200  0.98761600  1
  C  C26  1  0.09024800  0.73646000  0.93261400  1
  C  C27  1  0.37102400  0.00291000  0.21058900  1
  C  C28  1  0.61068300  0.01228500  0.81120700  1
  C  C29  1  0.90637000  0.25794000  0.06939500  1
  C  C30  1  0.81122600  0.61071500  0.01297600  1
  C  C31  1  0.41286700  0.56492000  0.76504500  1
  C  C32  1  0.56335000  0.76952700  0.41323600  1
  C  C33  1  0.73445700  0.93229100  0.08872600  1
  C  C34  1  0.96955100  0.20472400  0.37862100  1
  C  C35  1  0.76673100  0.41461600  0.56507400  1
  C  C36  1  0.47936100  0.88759400  0.69411400  1
  C  C37  1  0.93403000  0.09008800  0.73153700  1
  C  C38  1  0.69180700  0.48313400  0.88676200  1
  C  C39  1  0.88710100  0.69217800  0.48195300  1
