# generated using pymatgen
data_Cu2Ni2C7
_symmetry_space_group_name_H-M   'P 1'
_cell_length_a   7.17574800
_cell_length_b   7.35409301
_cell_length_c   12.98680347
_cell_angle_alpha   93.80889646
_cell_angle_beta   96.51133249
_cell_angle_gamma   93.56451025
_symmetry_Int_Tables_number   1
_chemical_formula_structural   Cu2Ni2C7
_chemical_formula_sum   'Cu8 Ni8 C28'
_cell_volume   677.72183517
_cell_formula_units_Z   4
loop_
 _symmetry_equiv_pos_site_id
 _symmetry_equiv_pos_as_xyz
  1  'x, y, z'
loop_
 _atom_site_type_symbol
 _atom_site_label
 _atom_site_symmetry_multiplicity
 _atom_site_fract_x
 _atom_site_fract_y
 _atom_site_fract_z
 _atom_site_occupancy
  Ni  Ni0  1  0.18739800  0.36568700  0.61414100  1
  Ni  Ni1  1  0.02248600  0.81596900  0.12918100  1
  Ni  Ni2  1  0.33869200  0.24086900  0.40335600  1
  Ni  Ni3  1  0.41936600  0.31318000  0.19233900  1
  Ni  Ni4  1  0.58063400  0.68682000  0.80766100  1
  Ni  Ni5  1  0.66130800  0.75913100  0.59664400  1
  Ni  Ni6  1  0.97751400  0.18403100  0.87081900  1
  Ni  Ni7  1  0.81260200  0.63431300  0.38585900  1
  Cu  Cu8  1  0.99718300  0.75433500  0.88127000  1
  Cu  Cu9  1  0.25905800  0.81713500  0.65590400  1
  Cu  Cu10  1  0.38588600  0.27890000  0.83629800  1
  Cu  Cu11  1  0.24716300  0.80518300  0.35634900  1
  Cu  Cu12  1  0.75283700  0.19481700  0.64365100  1
  Cu  Cu13  1  0.61411400  0.72110000  0.16370200  1
  Cu  Cu14  1  0.74094200  0.18286500  0.34409600  1
  Cu  Cu15  1  0.00281700  0.24566500  0.11873000  1
  C  C16  1  0.94287500  0.01705800  0.15420300  1
  C  C17  1  0.15144300  0.33716500  0.86200900  1
  C  C18  1  0.02153000  0.74001200  0.39733300  1
  C  C19  1  0.17451600  0.57992000  0.65344600  1
  C  C20  1  0.20979100  0.04889100  0.37582200  1
  C  C21  1  0.09672700  0.79047100  0.01528200  1
  C  C22  1  0.33643600  0.26294000  0.69379800  1
  C  C23  1  0.26323500  0.35566900  0.49973900  1
  C  C24  1  0.25311700  0.21641400  0.10447300  1
  C  C25  1  0.20147700  0.78142900  0.21480100  1
  C  C26  1  0.48682600  0.51001800  0.85643100  1
  C  C27  1  0.41868700  0.83108500  0.77715500  1
  C  C28  1  0.32433000  0.36408300  0.30082100  1
  C  C29  1  0.43733700  0.79552800  0.56630700  1
  C  C30  1  0.56266300  0.20447200  0.43369300  1
  C  C31  1  0.67567000  0.63591700  0.69917900  1
  C  C32  1  0.58131300  0.16891500  0.22284500  1
  C  C33  1  0.51317400  0.48998200  0.14356900  1
  C  C34  1  0.79852300  0.21857100  0.78519900  1
  C  C35  1  0.74688300  0.78358600  0.89552700  1
  C  C36  1  0.73676500  0.64433100  0.50026100  1
  C  C37  1  0.66356400  0.73706000  0.30620200  1
  C  C38  1  0.90327300  0.20952900  0.98471800  1
  C  C39  1  0.79020900  0.95110900  0.62417800  1
  C  C40  1  0.82548400  0.42008000  0.34655400  1
  C  C41  1  0.97847000  0.25998800  0.60266700  1
  C  C42  1  0.84855700  0.66283500  0.13799100  1
  C  C43  1  0.05712500  0.98294200  0.84579700  1
