# generated using pymatgen
data_Cu2(NiC3)11
_symmetry_space_group_name_H-M   'P 1'
_cell_length_a   10.59161400
_cell_length_b   14.41495200
_cell_length_c   19.00835500
_cell_angle_alpha   90.00000000
_cell_angle_beta   90.00000000
_cell_angle_gamma   90.00000000
_symmetry_Int_Tables_number   1
_chemical_formula_structural   Cu2(NiC3)11
_chemical_formula_sum   'Cu8 Ni44 C132'
_cell_volume   2902.15016225
_cell_formula_units_Z   4
loop_
 _symmetry_equiv_pos_site_id
 _symmetry_equiv_pos_as_xyz
  1  'x, y, z'
loop_
 _atom_site_type_symbol
 _atom_site_label
 _atom_site_symmetry_multiplicity
 _atom_site_fract_x
 _atom_site_fract_y
 _atom_site_fract_z
 _atom_site_occupancy
  C  C0  1  0.00847300  0.20228400  0.18198100  1
  C  C1  1  0.00847300  0.79771600  0.68198100  1
  C  C2  1  0.99152700  0.20228400  0.31801900  1
  C  C3  1  0.49152700  0.70228400  0.18198100  1
  C  C4  1  0.50847300  0.29771600  0.81801900  1
  C  C5  1  0.99152700  0.79771600  0.81801900  1
  C  C6  1  0.49152700  0.29771600  0.68198100  1
  C  C7  1  0.50847300  0.70228400  0.31801900  1
  C  C8  1  0.13933600  0.90216300  0.83660200  1
  C  C9  1  0.29941600  0.35188800  0.68019200  1
  C  C10  1  0.20058400  0.85188800  0.68019200  1
  C  C11  1  0.79941600  0.14811200  0.31980800  1
  C  C12  1  0.36066400  0.40216300  0.83660200  1
  C  C13  1  0.20058400  0.14811200  0.18019200  1
  C  C14  1  0.13933600  0.09783700  0.33660200  1
  C  C15  1  0.86066400  0.90216300  0.66339800  1
  C  C16  1  0.70058400  0.35188800  0.81980800  1
  C  C17  1  0.79941600  0.85188800  0.81980800  1
  C  C18  1  0.63933600  0.40216300  0.66339800  1
  C  C19  1  0.29941600  0.64811200  0.18019200  1
  C  C20  1  0.86066400  0.09783700  0.16339800  1
  C  C21  1  0.70058400  0.64811200  0.31980800  1
  C  C22  1  0.36066400  0.59783700  0.33660200  1
  C  C23  1  0.63933600  0.59783700  0.16339800  1
  Ni  Ni24  1  0.82335000  0.74645100  0.32388100  1
  Ni  Ni25  1  0.00000000  0.69919600  0.75000000  1
  Ni  Ni26  1  0.25009100  0.36990900  0.91320600  1
  Ni  Ni27  1  0.82335000  0.25354900  0.82388100  1
  Ni  Ni28  1  0.32335000  0.24645100  0.17611900  1
  Ni  Ni29  1  0.89298500  0.97310800  0.13280800  1
  Ni  Ni30  1  0.17665000  0.25354900  0.67611900  1
  Ni  Ni31  1  0.50231500  0.22299600  0.60703700  1
  Ni  Ni32  1  0.74990900  0.63009100  0.08679400  1
  Ni  Ni33  1  0.49768500  0.22299600  0.89296300  1
  Ni  Ni34  1  0.23499300  0.42225500  0.60195400  1
  Ni  Ni35  1  0.00231500  0.72299600  0.89296300  1
  Ni  Ni36  1  0.67665000  0.75354900  0.82388100  1
  Ni  Ni37  1  0.39298500  0.47310800  0.36719200  1
  Ni  Ni38  1  0.76500700  0.57774500  0.39804600  1
  Ni  Ni39  1  0.73499300  0.92225500  0.89804600  1
  Ni  Ni40  1  0.67665000  0.24645100  0.32388100  1
  Ni  Ni41  1  0.32335000  0.75354900  0.67611900  1
  Ni  Ni42  1  0.74990900  0.36990900  0.58679400  1
  Ni  Ni43  1  0.50000000  0.19919600  0.75000000  1
  Ni  Ni44  1  0.89298500  0.02689200  0.63280800  1
  Ni  Ni45  1  0.73499300  0.07774500  0.39804600  1
  Ni  Ni46  1  0.75009100  0.13009100  0.08679400  1
  Ni  Ni47  1  0.60701500  0.47310800  0.13280800  1
  Ni  Ni48  1  0.49768500  0.77700400  0.39296300  1
  Ni  Ni49  1  0.39298500  0.52689200  0.86719200  1
  Ni  Ni50  1  0.10701500  0.02689200  0.86719200  1
  Ni  Ni51  1  0.50000000  0.80080400  0.25000000  1
  Ni  Ni52  1  0.23499300  0.57774500  0.10195400  1
  Ni  Ni53  1  0.99768500  0.72299600  0.60703700  1
  Ni  Ni54  1  0.00000000  0.30080400  0.25000000  1
  Ni  Ni55  1  0.75009100  0.86990900  0.58679400  1
  Ni  Ni56  1  0.50231500  0.77700400  0.10703700  1
  Ni  Ni57  1  0.24990900  0.86990900  0.91320600  1
  Ni  Ni58  1  0.24990900  0.13009100  0.41320600  1
  Ni  Ni59  1  0.26500700  0.07774500  0.10195400  1
  Ni  Ni60  1  0.10701500  0.97310800  0.36719200  1
  Ni  Ni61  1  0.25009100  0.63009100  0.41320600  1
  Ni  Ni62  1  0.17665000  0.74645100  0.17611900  1
  Ni  Ni63  1  0.60701500  0.52689200  0.63280800  1
  Ni  Ni64  1  0.76500700  0.42225500  0.89804600  1
  Ni  Ni65  1  0.99768500  0.27700400  0.10703700  1
  Ni  Ni66  1  0.26500700  0.92225500  0.60195400  1
  Ni  Ni67  1  0.00231500  0.27700400  0.39296300  1
  Cu  Cu68  1  0.21968600  0.56592000  0.26098500  1
  Cu  Cu69  1  0.21968600  0.43408000  0.76098500  1
  Cu  Cu70  1  0.71968600  0.93408000  0.73901500  1
  Cu  Cu71  1  0.78031400  0.43408000  0.73901500  1
  Cu  Cu72  1  0.28031400  0.06592000  0.26098500  1
  Cu  Cu73  1  0.28031400  0.93408000  0.76098500  1
  Cu  Cu74  1  0.71968600  0.06592000  0.23901500  1
  Cu  Cu75  1  0.78031400  0.56592000  0.23901500  1
  C  C76  1  0.49542600  0.82553600  0.44141100  1
  C  C77  1  0.00000000  0.61748900  0.75000000  1
  C  C78  1  0.50000000  0.11748900  0.75000000  1
  C  C79  1  0.50457400  0.82553600  0.05858900  1
  C  C80  1  0.99542600  0.67446400  0.55858900  1
  C  C81  1  0.00457400  0.32553600  0.44141100  1
  C  C82  1  0.50000000  0.88251100  0.25000000  1
  C  C83  1  0.50457400  0.17446400  0.55858900  1
  C  C84  1  0.00457400  0.67446400  0.94141100  1
  C  C85  1  0.99542600  0.32553600  0.05858900  1
  C  C86  1  0.00000000  0.38251100  0.25000000  1
  C  C87  1  0.49542600  0.17446400  0.94141100  1
  C  C88  1  0.55630300  0.52618400  0.56716700  1
  C  C89  1  0.21180600  0.08129600  0.86859200  1
  C  C90  1  0.11016100  0.55716200  0.10603900  1
  C  C91  1  0.25428600  0.62681400  0.04172500  1
  C  C92  1  0.38983900  0.05716200  0.10603900  1
  C  C93  1  0.19592700  0.71332400  0.39834700  1
  C  C94  1  0.18176400  0.13993500  0.47346000  1
  C  C95  1  0.25428600  0.37318600  0.54172500  1
  C  C96  1  0.21180600  0.91870400  0.36859200  1
  C  C97  1  0.71180600  0.58129600  0.63140800  1
  C  C98  1  0.55630300  0.47381600  0.06716700  1
  C  C99  1  0.20105200  0.99640300  0.09718900  1
  C  C100  1  0.70105200  0.49640300  0.40281100  1
  C  C101  1  0.38983900  0.94283800  0.60603900  1
  C  C102  1  0.20105200  0.00359700  0.59718900  1
  C  C103  1  0.55462000  0.21815000  0.32415500  1
  C  C104  1  0.61016100  0.94283800  0.89396100  1
  C  C105  1  0.69337400  0.69773100  0.76679100  1
  C  C106  1  0.97718000  0.93307500  0.17741200  1
  C  C107  1  0.94369700  0.02618400  0.56716700  1
  C  C108  1  0.19337400  0.19773100  0.73320900  1
  C  C109  1  0.30662600  0.30226900  0.23320900  1
  C  C110  1  0.80407300  0.71332400  0.10165300  1
  C  C111  1  0.05462000  0.28185000  0.67584500  1
  C  C112  1  0.78819400  0.08129600  0.63140800  1
  C  C113  1  0.05462000  0.71815000  0.17584500  1
  C  C114  1  0.31823600  0.63993500  0.47346000  1
  C  C115  1  0.94369700  0.97381600  0.06716700  1
  C  C116  1  0.29894800  0.49640300  0.09718900  1
  C  C117  1  0.55462000  0.78185000  0.82415500  1
  C  C118  1  0.74571400  0.37318600  0.95827500  1
  C  C119  1  0.78819400  0.91870400  0.13140800  1
  C  C120  1  0.84383400  0.56814900  0.07435700  1
  C  C121  1  0.75428600  0.87318600  0.95827500  1
  C  C122  1  0.24571400  0.12681400  0.04172500  1
  C  C123  1  0.05630300  0.02618400  0.93283300  1
  C  C124  1  0.68176400  0.63993500  0.02654000  1
  C  C125  1  0.18176400  0.86006500  0.97346000  1
  C  C126  1  0.69337400  0.30226900  0.26679100  1
  C  C127  1  0.65616600  0.93185100  0.57435700  1
  C  C128  1  0.70105200  0.50359700  0.90281100  1
  C  C129  1  0.84383400  0.43185100  0.57435700  1
  C  C130  1  0.79894800  0.99640300  0.40281100  1
  C  C131  1  0.74571400  0.62681400  0.45827500  1
  C  C132  1  0.80662600  0.80226900  0.26679100  1
  C  C133  1  0.52282000  0.56692500  0.67741200  1
  C  C134  1  0.19337400  0.80226900  0.23320900  1
  C  C135  1  0.44369700  0.47381600  0.43283300  1
  C  C136  1  0.80350100  0.20174600  0.88269400  1
  C  C137  1  0.69649900  0.70174600  0.88269400  1
  C  C138  1  0.02282000  0.93307500  0.32258800  1
  C  C139  1  0.94538000  0.71815000  0.32415500  1
  C  C140  1  0.30350100  0.70174600  0.61730600  1
  C  C141  1  0.97718000  0.06692500  0.67741200  1
  C  C142  1  0.81823600  0.86006500  0.52654000  1
  C  C143  1  0.30350100  0.29825400  0.11730600  1
  C  C144  1  0.47718000  0.43307500  0.32258800  1
  C  C145  1  0.80350100  0.79825400  0.38269400  1
  C  C146  1  0.02282000  0.06692500  0.82258800  1
  C  C147  1  0.19649900  0.79825400  0.11730600  1
  C  C148  1  0.47718000  0.56692500  0.82258800  1
  C  C149  1  0.30407300  0.21332400  0.39834700  1
  C  C150  1  0.79894800  0.00359700  0.90281100  1
  C  C151  1  0.19649900  0.20174600  0.61730600  1
  C  C152  1  0.44538000  0.78185000  0.67584500  1
  C  C153  1  0.31823600  0.36006500  0.97346000  1
  C  C154  1  0.05630300  0.97381600  0.43283300  1
  C  C155  1  0.29894800  0.50359700  0.59718900  1
  C  C156  1  0.71180600  0.41870400  0.13140800  1
  C  C157  1  0.11016100  0.44283800  0.60603900  1
  C  C158  1  0.34383400  0.06814900  0.42564300  1
  C  C159  1  0.69592700  0.21332400  0.10165300  1
  C  C160  1  0.15616600  0.56814900  0.42564300  1
  C  C161  1  0.68176400  0.36006500  0.52654000  1
  C  C162  1  0.94538000  0.28185000  0.82415500  1
  C  C163  1  0.61016100  0.05716200  0.39396100  1
  C  C164  1  0.65616600  0.06814900  0.07435700  1
  C  C165  1  0.88983900  0.55716200  0.39396100  1
  C  C166  1  0.44369700  0.52618400  0.93283300  1
  C  C167  1  0.69649900  0.29825400  0.38269400  1
  C  C168  1  0.88983900  0.44283800  0.89396100  1
  C  C169  1  0.34383400  0.93185100  0.92564300  1
  C  C170  1  0.81823600  0.13993500  0.02654000  1
  C  C171  1  0.28819400  0.58129600  0.86859200  1
  C  C172  1  0.24571400  0.87318600  0.54172500  1
  C  C173  1  0.30407300  0.78667600  0.89834700  1
  C  C174  1  0.19592700  0.28667600  0.89834700  1
  C  C175  1  0.30662600  0.69773100  0.73320900  1
  C  C176  1  0.15616600  0.43185100  0.92564300  1
  C  C177  1  0.80407300  0.28667600  0.60165300  1
  C  C178  1  0.69592700  0.78667600  0.60165300  1
  C  C179  1  0.75428600  0.12681400  0.45827500  1
  C  C180  1  0.44538000  0.21815000  0.17584500  1
  C  C181  1  0.80662600  0.19773100  0.76679100  1
  C  C182  1  0.28819400  0.41870400  0.36859200  1
  C  C183  1  0.52282000  0.43307500  0.17741200  1
