# generated using pymatgen
data_Cu4Ni14C19
_symmetry_space_group_name_H-M   'P 1'
_cell_length_a   7.88794000
_cell_length_b   8.65521700
_cell_length_c   24.87492600
_cell_angle_alpha   90.00000000
_cell_angle_beta   90.00000000
_cell_angle_gamma   90.00000000
_symmetry_Int_Tables_number   1
_chemical_formula_structural   Cu4Ni14C19
_chemical_formula_sum   'Cu16 Ni56 C76'
_cell_volume   1698.25677841
_cell_formula_units_Z   4
loop_
 _symmetry_equiv_pos_site_id
 _symmetry_equiv_pos_as_xyz
  1  'x, y, z'
loop_
 _atom_site_type_symbol
 _atom_site_label
 _atom_site_symmetry_multiplicity
 _atom_site_fract_x
 _atom_site_fract_y
 _atom_site_fract_z
 _atom_site_occupancy
  C  C0  1  0.29805900  0.88130200  0.75000000  1
  C  C1  1  0.79805900  0.61869800  0.75000000  1
  C  C2  1  0.70194100  0.11869800  0.25000000  1
  C  C3  1  0.20194100  0.38130200  0.25000000  1
  Ni  Ni4  1  0.85164900  0.10949600  0.83202700  1
  Ni  Ni5  1  0.35164900  0.39050400  0.66797300  1
  Ni  Ni6  1  0.14835100  0.89050400  0.33202700  1
  Ni  Ni7  1  0.64835100  0.60949600  0.16797300  1
  Ni  Ni8  1  0.14835100  0.89050400  0.16797300  1
  Ni  Ni9  1  0.64835100  0.60949600  0.33202700  1
  Ni  Ni10  1  0.85164900  0.10949600  0.66797300  1
  Ni  Ni11  1  0.35164900  0.39050400  0.83202700  1
  Ni  Ni12  1  0.09098900  0.05277400  0.71737600  1
  Ni  Ni13  1  0.59098900  0.44722600  0.78262400  1
  Ni  Ni14  1  0.90901100  0.94722600  0.21737600  1
  Ni  Ni15  1  0.40901100  0.55277400  0.28262400  1
  Ni  Ni16  1  0.90901100  0.94722600  0.28262400  1
  Ni  Ni17  1  0.40901100  0.55277400  0.21737600  1
  Ni  Ni18  1  0.09098900  0.05277400  0.78262400  1
  Ni  Ni19  1  0.59098900  0.44722600  0.71737600  1
  Ni  Ni20  1  0.54162300  0.99945900  0.78269500  1
  Ni  Ni21  1  0.04162300  0.50054100  0.71730500  1
  Ni  Ni22  1  0.45837700  0.00054100  0.28269500  1
  Ni  Ni23  1  0.95837700  0.49945900  0.21730500  1
  Ni  Ni24  1  0.45837700  0.00054100  0.21730500  1
  Ni  Ni25  1  0.95837700  0.49945900  0.28269500  1
  Ni  Ni26  1  0.54162300  0.99945900  0.71730500  1
  Ni  Ni27  1  0.04162300  0.50054100  0.78269500  1
  Ni  Ni28  1  0.17556400  0.78819100  0.67124500  1
  Ni  Ni29  1  0.67556400  0.71180900  0.82875500  1
  Ni  Ni30  1  0.82443600  0.21180900  0.17124500  1
  Ni  Ni31  1  0.32443600  0.28819100  0.32875500  1
  Ni  Ni32  1  0.82443600  0.21180900  0.32875500  1
  Ni  Ni33  1  0.32443600  0.28819100  0.17124500  1
  Ni  Ni34  1  0.17556400  0.78819100  0.82875500  1
  Ni  Ni35  1  0.67556400  0.71180900  0.67124500  1
  Ni  Ni36  1  0.37593400  0.77180800  0.66645400  1
  Ni  Ni37  1  0.87593400  0.72819200  0.83354600  1
  Ni  Ni38  1  0.62406600  0.22819200  0.16645400  1
  Ni  Ni39  1  0.12406600  0.27180800  0.33354600  1
  Ni  Ni40  1  0.62406600  0.22819200  0.33354600  1
  Ni  Ni41  1  0.12406600  0.27180800  0.16645400  1
  Ni  Ni42  1  0.37593400  0.77180800  0.83354600  1
  Ni  Ni43  1  0.87593400  0.72819200  0.66645400  1
  Ni  Ni44  1  0.48887600  0.64608500  0.59921800  1
  Ni  Ni45  1  0.98887600  0.85391500  0.90078200  1
  Ni  Ni46  1  0.51112400  0.35391500  0.09921800  1
  Ni  Ni47  1  0.01112400  0.14608500  0.40078200  1
  Ni  Ni48  1  0.51112400  0.35391500  0.40078200  1
  Ni  Ni49  1  0.01112400  0.14608500  0.09921800  1
  Ni  Ni50  1  0.48887600  0.64608500  0.90078200  1
  Ni  Ni51  1  0.98887600  0.85391500  0.59921800  1
  Ni  Ni52  1  0.54232200  0.82380900  0.59729900  1
  Ni  Ni53  1  0.04232200  0.67619100  0.90270100  1
  Ni  Ni54  1  0.45767800  0.17619100  0.09729900  1
  Ni  Ni55  1  0.95767800  0.32380900  0.40270100  1
  Ni  Ni56  1  0.45767800  0.17619100  0.40270100  1
  Ni  Ni57  1  0.95767800  0.32380900  0.09729900  1
  Ni  Ni58  1  0.54232200  0.82380900  0.90270100  1
  Ni  Ni59  1  0.04232200  0.67619100  0.59729900  1
  Cu  Cu60  1  0.03476700  0.29159300  0.88344600  1
  Cu  Cu61  1  0.53476700  0.20840700  0.61655400  1
  Cu  Cu62  1  0.96523300  0.70840700  0.38344600  1
  Cu  Cu63  1  0.46523300  0.79159300  0.11655400  1
  Cu  Cu64  1  0.96523300  0.70840700  0.11655400  1
  Cu  Cu65  1  0.46523300  0.79159300  0.38344600  1
  Cu  Cu66  1  0.03476700  0.29159300  0.61655400  1
  Cu  Cu67  1  0.53476700  0.20840700  0.88344600  1
  Cu  Cu68  1  0.26516800  0.52018500  0.99243500  1
  Cu  Cu69  1  0.76516800  0.97981500  0.50756500  1
  Cu  Cu70  1  0.73483200  0.47981500  0.49243500  1
  Cu  Cu71  1  0.23483200  0.02018500  0.00756500  1
  Cu  Cu72  1  0.73483200  0.47981500  0.00756500  1
  Cu  Cu73  1  0.23483200  0.02018500  0.49243500  1
  Cu  Cu74  1  0.26516800  0.52018500  0.50756500  1
  Cu  Cu75  1  0.76516800  0.97981500  0.99243500  1
  C  C76  1  0.82150600  0.37131500  0.88318000  1
  C  C77  1  0.32150600  0.12868500  0.61682000  1
  C  C78  1  0.17849400  0.62868500  0.38318000  1
  C  C79  1  0.67849400  0.87131500  0.11682000  1
  C  C80  1  0.17849400  0.62868500  0.11682000  1
  C  C81  1  0.67849400  0.87131500  0.38318000  1
  C  C82  1  0.82150600  0.37131500  0.61682000  1
  C  C83  1  0.32150600  0.12868500  0.88318000  1
  C  C84  1  0.13925200  0.41336400  0.83343800  1
  C  C85  1  0.63925200  0.08663600  0.66656200  1
  C  C86  1  0.86074800  0.58663600  0.33343800  1
  C  C87  1  0.36074800  0.91336400  0.16656200  1
  C  C88  1  0.86074800  0.58663600  0.16656200  1
  C  C89  1  0.36074800  0.91336400  0.33343800  1
  C  C90  1  0.13925200  0.41336400  0.66656200  1
  C  C91  1  0.63925200  0.08663600  0.83343800  1
  C  C92  1  0.97844800  0.12834400  0.83090200  1
  C  C93  1  0.47844800  0.37165600  0.66909800  1
  C  C94  1  0.02155200  0.87165600  0.33090200  1
  C  C95  1  0.52155200  0.62834400  0.16909800  1
  C  C96  1  0.02155200  0.87165600  0.16909800  1
  C  C97  1  0.52155200  0.62834400  0.33090200  1
  C  C98  1  0.97844800  0.12834400  0.66909800  1
  C  C99  1  0.47844800  0.37165600  0.83090200  1
  C  C100  1  0.27715700  0.72983300  0.99353100  1
  C  C101  1  0.77715700  0.77016700  0.50646900  1
  C  C102  1  0.72284300  0.27016700  0.49353100  1
  C  C103  1  0.22284300  0.22983300  0.00646900  1
  C  C104  1  0.72284300  0.27016700  0.00646900  1
  C  C105  1  0.22284300  0.22983300  0.49353100  1
  C  C106  1  0.27715700  0.72983300  0.50646900  1
  C  C107  1  0.77715700  0.77016700  0.99353100  1
  C  C108  1  0.43742300  0.47980900  0.94399300  1
  C  C109  1  0.93742300  0.02019100  0.55600700  1
  C  C110  1  0.56257700  0.52019100  0.44399300  1
  C  C111  1  0.06257700  0.97980900  0.05600700  1
  C  C112  1  0.56257700  0.52019100  0.05600700  1
  C  C113  1  0.06257700  0.97980900  0.44399300  1
  C  C114  1  0.43742300  0.47980900  0.55600700  1
  C  C115  1  0.93742300  0.02019100  0.94399300  1
  C  C116  1  0.08271800  0.50333500  0.94433800  1
  C  C117  1  0.58271800  0.99666500  0.55566200  1
  C  C118  1  0.91728200  0.49666500  0.44433800  1
  C  C119  1  0.41728200  0.00333500  0.05566200  1
  C  C120  1  0.91728200  0.49666500  0.05566200  1
  C  C121  1  0.41728200  0.00333500  0.44433800  1
  C  C122  1  0.08271800  0.50333500  0.55566200  1
  C  C123  1  0.58271800  0.99666500  0.94433800  1
  C  C124  1  0.14032700  0.00190900  0.75000000  1
  C  C125  1  0.64032700  0.49809100  0.75000000  1
  C  C126  1  0.85967300  0.99809100  0.25000000  1
  C  C127  1  0.35967300  0.50190900  0.25000000  1
  C  C128  1  0.49108700  0.94905800  0.75000000  1
  C  C129  1  0.99108700  0.55094200  0.75000000  1
  C  C130  1  0.50891300  0.05094200  0.25000000  1
  C  C131  1  0.00891300  0.44905800  0.25000000  1
  C  C132  1  0.28129800  0.78682000  0.69340500  1
  C  C133  1  0.78129800  0.71318000  0.80659500  1
  C  C134  1  0.71870200  0.21318000  0.19340500  1
  C  C135  1  0.21870200  0.28682000  0.30659500  1
  C  C136  1  0.71870200  0.21318000  0.30659500  1
  C  C137  1  0.21870200  0.28682000  0.19340500  1
  C  C138  1  0.28129800  0.78682000  0.80659500  1
  C  C139  1  0.78129800  0.71318000  0.69340500  1
  C  C140  1  0.52015900  0.73590400  0.62213100  1
  C  C141  1  0.02015900  0.76409600  0.87786900  1
  C  C142  1  0.47984100  0.26409600  0.12213100  1
  C  C143  1  0.97984100  0.23590400  0.37786900  1
  C  C144  1  0.47984100  0.26409600  0.37786900  1
  C  C145  1  0.97984100  0.23590400  0.12213100  1
  C  C146  1  0.52015900  0.73590400  0.87786900  1
  C  C147  1  0.02015900  0.76409600  0.62213100  1
