# generated using pymatgen
data_Cu18Ni4C15
_symmetry_space_group_name_H-M   'P 1'
_cell_length_a   7.88794000
_cell_length_b   8.65521700
_cell_length_c   24.87492600
_cell_angle_alpha   90.00000000
_cell_angle_beta   90.00000000
_cell_angle_gamma   90.00000000
_symmetry_Int_Tables_number   1
_chemical_formula_structural   Cu18Ni4C15
_chemical_formula_sum   'Cu72 Ni16 C60'
_cell_volume   1698.25677841
_cell_formula_units_Z   4
loop_
 _symmetry_equiv_pos_site_id
 _symmetry_equiv_pos_as_xyz
  1  'x, y, z'
loop_
 _atom_site_type_symbol
 _atom_site_label
 _atom_site_symmetry_multiplicity
 _atom_site_fract_x
 _atom_site_fract_y
 _atom_site_fract_z
 _atom_site_occupancy
  C  C0  1  0.29805900  0.88130200  0.75000000  1
  C  C1  1  0.79805900  0.61869800  0.75000000  1
  C  C2  1  0.70194100  0.11869800  0.25000000  1
  C  C3  1  0.20194100  0.38130200  0.25000000  1
  C  C4  1  0.85164900  0.10949600  0.83202700  1
  C  C5  1  0.35164900  0.39050400  0.66797300  1
  C  C6  1  0.14835100  0.89050400  0.33202700  1
  C  C7  1  0.64835100  0.60949600  0.16797300  1
  C  C8  1  0.14835100  0.89050400  0.16797300  1
  C  C9  1  0.64835100  0.60949600  0.33202700  1
  C  C10  1  0.85164900  0.10949600  0.66797300  1
  C  C11  1  0.35164900  0.39050400  0.83202700  1
  C  C12  1  0.09098900  0.05277400  0.71737600  1
  C  C13  1  0.59098900  0.44722600  0.78262400  1
  C  C14  1  0.90901100  0.94722600  0.21737600  1
  C  C15  1  0.40901100  0.55277400  0.28262400  1
  C  C16  1  0.90901100  0.94722600  0.28262400  1
  C  C17  1  0.40901100  0.55277400  0.21737600  1
  C  C18  1  0.09098900  0.05277400  0.78262400  1
  C  C19  1  0.59098900  0.44722600  0.71737600  1
  C  C20  1  0.54162300  0.99945900  0.78269500  1
  C  C21  1  0.04162300  0.50054100  0.71730500  1
  C  C22  1  0.45837700  0.00054100  0.28269500  1
  C  C23  1  0.95837700  0.49945900  0.21730500  1
  C  C24  1  0.45837700  0.00054100  0.21730500  1
  C  C25  1  0.95837700  0.49945900  0.28269500  1
  C  C26  1  0.54162300  0.99945900  0.71730500  1
  C  C27  1  0.04162300  0.50054100  0.78269500  1
  C  C28  1  0.17556400  0.78819100  0.67124500  1
  C  C29  1  0.67556400  0.71180900  0.82875500  1
  C  C30  1  0.82443600  0.21180900  0.17124500  1
  C  C31  1  0.32443600  0.28819100  0.32875500  1
  C  C32  1  0.82443600  0.21180900  0.32875500  1
  C  C33  1  0.32443600  0.28819100  0.17124500  1
  C  C34  1  0.17556400  0.78819100  0.82875500  1
  C  C35  1  0.67556400  0.71180900  0.67124500  1
  C  C36  1  0.37593400  0.77180800  0.66645400  1
  C  C37  1  0.87593400  0.72819200  0.83354600  1
  C  C38  1  0.62406600  0.22819200  0.16645400  1
  C  C39  1  0.12406600  0.27180800  0.33354600  1
  C  C40  1  0.62406600  0.22819200  0.33354600  1
  C  C41  1  0.12406600  0.27180800  0.16645400  1
  C  C42  1  0.37593400  0.77180800  0.83354600  1
  C  C43  1  0.87593400  0.72819200  0.66645400  1
  C  C44  1  0.48887600  0.64608500  0.59921800  1
  C  C45  1  0.98887600  0.85391500  0.90078200  1
  C  C46  1  0.51112400  0.35391500  0.09921800  1
  C  C47  1  0.01112400  0.14608500  0.40078200  1
  C  C48  1  0.51112400  0.35391500  0.40078200  1
  C  C49  1  0.01112400  0.14608500  0.09921800  1
  C  C50  1  0.48887600  0.64608500  0.90078200  1
  C  C51  1  0.98887600  0.85391500  0.59921800  1
  C  C52  1  0.54232200  0.82380900  0.59729900  1
  C  C53  1  0.04232200  0.67619100  0.90270100  1
  C  C54  1  0.45767800  0.17619100  0.09729900  1
  C  C55  1  0.95767800  0.32380900  0.40270100  1
  C  C56  1  0.45767800  0.17619100  0.40270100  1
  C  C57  1  0.95767800  0.32380900  0.09729900  1
  C  C58  1  0.54232200  0.82380900  0.90270100  1
  C  C59  1  0.04232200  0.67619100  0.59729900  1
  Ni  Ni60  1  0.03476700  0.29159300  0.88344600  1
  Ni  Ni61  1  0.53476700  0.20840700  0.61655400  1
  Ni  Ni62  1  0.96523300  0.70840700  0.38344600  1
  Ni  Ni63  1  0.46523300  0.79159300  0.11655400  1
  Ni  Ni64  1  0.96523300  0.70840700  0.11655400  1
  Ni  Ni65  1  0.46523300  0.79159300  0.38344600  1
  Ni  Ni66  1  0.03476700  0.29159300  0.61655400  1
  Ni  Ni67  1  0.53476700  0.20840700  0.88344600  1
  Ni  Ni68  1  0.26516800  0.52018500  0.99243500  1
  Ni  Ni69  1  0.76516800  0.97981500  0.50756500  1
  Ni  Ni70  1  0.73483200  0.47981500  0.49243500  1
  Ni  Ni71  1  0.23483200  0.02018500  0.00756500  1
  Ni  Ni72  1  0.73483200  0.47981500  0.00756500  1
  Ni  Ni73  1  0.23483200  0.02018500  0.49243500  1
  Ni  Ni74  1  0.26516800  0.52018500  0.50756500  1
  Ni  Ni75  1  0.76516800  0.97981500  0.99243500  1
  Cu  Cu76  1  0.82150600  0.37131500  0.88318000  1
  Cu  Cu77  1  0.32150600  0.12868500  0.61682000  1
  Cu  Cu78  1  0.17849400  0.62868500  0.38318000  1
  Cu  Cu79  1  0.67849400  0.87131500  0.11682000  1
  Cu  Cu80  1  0.17849400  0.62868500  0.11682000  1
  Cu  Cu81  1  0.67849400  0.87131500  0.38318000  1
  Cu  Cu82  1  0.82150600  0.37131500  0.61682000  1
  Cu  Cu83  1  0.32150600  0.12868500  0.88318000  1
  Cu  Cu84  1  0.13925200  0.41336400  0.83343800  1
  Cu  Cu85  1  0.63925200  0.08663600  0.66656200  1
  Cu  Cu86  1  0.86074800  0.58663600  0.33343800  1
  Cu  Cu87  1  0.36074800  0.91336400  0.16656200  1
  Cu  Cu88  1  0.86074800  0.58663600  0.16656200  1
  Cu  Cu89  1  0.36074800  0.91336400  0.33343800  1
  Cu  Cu90  1  0.13925200  0.41336400  0.66656200  1
  Cu  Cu91  1  0.63925200  0.08663600  0.83343800  1
  Cu  Cu92  1  0.97844800  0.12834400  0.83090200  1
  Cu  Cu93  1  0.47844800  0.37165600  0.66909800  1
  Cu  Cu94  1  0.02155200  0.87165600  0.33090200  1
  Cu  Cu95  1  0.52155200  0.62834400  0.16909800  1
  Cu  Cu96  1  0.02155200  0.87165600  0.16909800  1
  Cu  Cu97  1  0.52155200  0.62834400  0.33090200  1
  Cu  Cu98  1  0.97844800  0.12834400  0.66909800  1
  Cu  Cu99  1  0.47844800  0.37165600  0.83090200  1
  Cu  Cu100  1  0.27715700  0.72983300  0.99353100  1
  Cu  Cu101  1  0.77715700  0.77016700  0.50646900  1
  Cu  Cu102  1  0.72284300  0.27016700  0.49353100  1
  Cu  Cu103  1  0.22284300  0.22983300  0.00646900  1
  Cu  Cu104  1  0.72284300  0.27016700  0.00646900  1
  Cu  Cu105  1  0.22284300  0.22983300  0.49353100  1
  Cu  Cu106  1  0.27715700  0.72983300  0.50646900  1
  Cu  Cu107  1  0.77715700  0.77016700  0.99353100  1
  Cu  Cu108  1  0.43742300  0.47980900  0.94399300  1
  Cu  Cu109  1  0.93742300  0.02019100  0.55600700  1
  Cu  Cu110  1  0.56257700  0.52019100  0.44399300  1
  Cu  Cu111  1  0.06257700  0.97980900  0.05600700  1
  Cu  Cu112  1  0.56257700  0.52019100  0.05600700  1
  Cu  Cu113  1  0.06257700  0.97980900  0.44399300  1
  Cu  Cu114  1  0.43742300  0.47980900  0.55600700  1
  Cu  Cu115  1  0.93742300  0.02019100  0.94399300  1
  Cu  Cu116  1  0.08271800  0.50333500  0.94433800  1
  Cu  Cu117  1  0.58271800  0.99666500  0.55566200  1
  Cu  Cu118  1  0.91728200  0.49666500  0.44433800  1
  Cu  Cu119  1  0.41728200  0.00333500  0.05566200  1
  Cu  Cu120  1  0.91728200  0.49666500  0.05566200  1
  Cu  Cu121  1  0.41728200  0.00333500  0.44433800  1
  Cu  Cu122  1  0.08271800  0.50333500  0.55566200  1
  Cu  Cu123  1  0.58271800  0.99666500  0.94433800  1
  Cu  Cu124  1  0.14032700  0.00190900  0.75000000  1
  Cu  Cu125  1  0.64032700  0.49809100  0.75000000  1
  Cu  Cu126  1  0.85967300  0.99809100  0.25000000  1
  Cu  Cu127  1  0.35967300  0.50190900  0.25000000  1
  Cu  Cu128  1  0.49108700  0.94905800  0.75000000  1
  Cu  Cu129  1  0.99108700  0.55094200  0.75000000  1
  Cu  Cu130  1  0.50891300  0.05094200  0.25000000  1
  Cu  Cu131  1  0.00891300  0.44905800  0.25000000  1
  Cu  Cu132  1  0.28129800  0.78682000  0.69340500  1
  Cu  Cu133  1  0.78129800  0.71318000  0.80659500  1
  Cu  Cu134  1  0.71870200  0.21318000  0.19340500  1
  Cu  Cu135  1  0.21870200  0.28682000  0.30659500  1
  Cu  Cu136  1  0.71870200  0.21318000  0.30659500  1
  Cu  Cu137  1  0.21870200  0.28682000  0.19340500  1
  Cu  Cu138  1  0.28129800  0.78682000  0.80659500  1
  Cu  Cu139  1  0.78129800  0.71318000  0.69340500  1
  Cu  Cu140  1  0.52015900  0.73590400  0.62213100  1
  Cu  Cu141  1  0.02015900  0.76409600  0.87786900  1
  Cu  Cu142  1  0.47984100  0.26409600  0.12213100  1
  Cu  Cu143  1  0.97984100  0.23590400  0.37786900  1
  Cu  Cu144  1  0.47984100  0.26409600  0.37786900  1
  Cu  Cu145  1  0.97984100  0.23590400  0.12213100  1
  Cu  Cu146  1  0.52015900  0.73590400  0.87786900  1
  Cu  Cu147  1  0.02015900  0.76409600  0.62213100  1
