# generated using pymatgen
data_Cu10(NiC4)3
_symmetry_space_group_name_H-M   'P 1'
_cell_length_a   16.67607400
_cell_length_b   5.67524700
_cell_length_c   5.68459708
_cell_angle_alpha   89.96463234
_cell_angle_beta   90.00000000
_cell_angle_gamma   90.00000000
_symmetry_Int_Tables_number   1
_chemical_formula_structural   Cu10(NiC4)3
_chemical_formula_sum   'Cu20 Ni6 C24'
_cell_volume   537.99493448
_cell_formula_units_Z   2
loop_
 _symmetry_equiv_pos_site_id
 _symmetry_equiv_pos_as_xyz
  1  'x, y, z'
loop_
 _atom_site_type_symbol
 _atom_site_label
 _atom_site_symmetry_multiplicity
 _atom_site_fract_x
 _atom_site_fract_y
 _atom_site_fract_z
 _atom_site_occupancy
  C  C0  1  0.00031800  0.75156700  0.24773200  1
  C  C1  1  0.49968200  0.75156700  0.24773200  1
  C  C2  1  0.38874300  0.74503300  0.74893600  1
  C  C3  1  0.11125700  0.74503300  0.74893600  1
  C  C4  1  0.61125700  0.25496700  0.25106400  1
  C  C5  1  0.88874300  0.25496700  0.25106400  1
  C  C6  1  0.99968200  0.24843300  0.75226800  1
  C  C7  1  0.50031800  0.24843300  0.75226800  1
  C  C8  1  0.62889200  0.74074900  0.74031600  1
  C  C9  1  0.87110800  0.74074900  0.74031600  1
  C  C10  1  0.37110800  0.25925100  0.25968400  1
  C  C11  1  0.12889200  0.25925100  0.25968400  1
  C  C12  1  0.79624500  0.86666000  0.22090700  1
  C  C13  1  0.70375500  0.86666000  0.22090700  1
  C  C14  1  0.29636500  0.79115100  0.14494700  1
  C  C15  1  0.20363500  0.79115100  0.14494700  1
  C  C16  1  0.25000000  0.73234000  0.54329600  1
  C  C17  1  0.25000000  0.53411700  0.73839200  1
  C  C18  1  0.75000000  0.46588300  0.26160800  1
  C  C19  1  0.75000000  0.26766000  0.45670400  1
  C  C20  1  0.79636500  0.20884900  0.85505300  1
  C  C21  1  0.70363500  0.20884900  0.85505300  1
  C  C22  1  0.29624500  0.13334000  0.77909300  1
  C  C23  1  0.20375500  0.13334000  0.77909300  1
  Ni  Ni24  1  0.75000000  0.77053800  0.26870000  1
  Ni  Ni25  1  0.25000000  0.74702100  0.24286000  1
  Ni  Ni26  1  0.25000000  0.70864700  0.71577200  1
  Ni  Ni27  1  0.75000000  0.29135300  0.28422800  1
  Ni  Ni28  1  0.75000000  0.25297900  0.75714000  1
  Ni  Ni29  1  0.25000000  0.22946200  0.73130000  1
  Cu  Cu30  1  0.86715600  0.01331100  0.00390400  1
  Cu  Cu31  1  0.63284400  0.01331100  0.00390400  1
  Cu  Cu32  1  0.90160300  0.99370800  0.48506800  1
  Cu  Cu33  1  0.59839700  0.99370800  0.48506800  1
  Cu  Cu34  1  0.51282100  0.81870700  0.80653100  1
  Cu  Cu35  1  0.98717900  0.81870700  0.80653100  1
  Cu  Cu36  1  0.92167200  0.49955800  0.50227500  1
  Cu  Cu37  1  0.57832800  0.49955800  0.50227500  1
  Cu  Cu38  1  0.90660100  0.49252400  0.99752100  1
  Cu  Cu39  1  0.59339900  0.49252400  0.99752100  1
  Cu  Cu40  1  0.40660100  0.50747600  0.00247900  1
  Cu  Cu41  1  0.09339900  0.50747600  0.00247900  1
  Cu  Cu42  1  0.42167200  0.50044200  0.49772500  1
  Cu  Cu43  1  0.07832800  0.50044200  0.49772500  1
  Cu  Cu44  1  0.01282100  0.18129300  0.19346900  1
  Cu  Cu45  1  0.48717900  0.18129300  0.19346900  1
  Cu  Cu46  1  0.40160300  0.00629200  0.51493200  1
  Cu  Cu47  1  0.09839700  0.00629200  0.51493200  1
  Cu  Cu48  1  0.36715600  0.98668900  0.99609600  1
  Cu  Cu49  1  0.13284400  0.98668900  0.99609600  1
