# generated using pymatgen
data_Cu4NiC
_symmetry_space_group_name_H-M   'P 1'
_cell_length_a   8.59729986
_cell_length_b   8.59729986
_cell_length_c   8.59729940
_cell_angle_alpha   60.01690388
_cell_angle_beta   60.01690388
_cell_angle_gamma   60.01690087
_symmetry_Int_Tables_number   1
_chemical_formula_structural   Cu4NiC
_chemical_formula_sum   'Cu24 Ni6 C6'
_cell_volume   449.50816768
_cell_formula_units_Z   6
loop_
 _symmetry_equiv_pos_site_id
 _symmetry_equiv_pos_as_xyz
  1  'x, y, z'
loop_
 _atom_site_type_symbol
 _atom_site_label
 _atom_site_symmetry_multiplicity
 _atom_site_fract_x
 _atom_site_fract_y
 _atom_site_fract_z
 _atom_site_occupancy
  C  C0  1  0.00000000  0.00000000  0.00000000  1
  C  C1  1  0.50000000  0.50000000  0.50000000  1
  C  C2  1  0.35476700  0.35476700  0.35476700  1
  C  C3  1  0.14523300  0.14523300  0.14523300  1
  C  C4  1  0.64523300  0.64523300  0.64523300  1
  C  C5  1  0.85476700  0.85476700  0.85476700  1
  Ni  Ni6  1  0.75000000  0.04589900  0.45410100  1
  Ni  Ni7  1  0.95410100  0.54589900  0.25000000  1
  Ni  Ni8  1  0.54589900  0.25000000  0.95410100  1
  Ni  Ni9  1  0.45410100  0.75000000  0.04589900  1
  Ni  Ni10  1  0.04589900  0.45410100  0.75000000  1
  Ni  Ni11  1  0.25000000  0.95410100  0.54589900  1
  Cu  Cu12  1  0.91086500  0.05791600  0.26838300  1
  Cu  Cu13  1  0.73161700  0.08913500  0.94208400  1
  Cu  Cu14  1  0.89308100  0.48583300  0.69458300  1
  Cu  Cu15  1  0.01416700  0.60691900  0.80541700  1
  Cu  Cu16  1  0.58913500  0.23161700  0.44208400  1
  Cu  Cu17  1  0.76838300  0.55791600  0.41086500  1
  Cu  Cu18  1  0.94208400  0.73161700  0.08913500  1
  Cu  Cu19  1  0.19458300  0.98583300  0.39308100  1
  Cu  Cu20  1  0.51416700  0.30541700  0.10691900  1
  Cu  Cu21  1  0.30541700  0.10691900  0.51416700  1
  Cu  Cu22  1  0.39308100  0.19458300  0.98583300  1
  Cu  Cu23  1  0.55791600  0.41086500  0.76838300  1
  Cu  Cu24  1  0.44208400  0.58913500  0.23161700  1
  Cu  Cu25  1  0.69458300  0.89308100  0.48583300  1
  Cu  Cu26  1  0.60691900  0.80541700  0.01416700  1
  Cu  Cu27  1  0.80541700  0.01416700  0.60691900  1
  Cu  Cu28  1  0.48583300  0.69458300  0.89308100  1
  Cu  Cu29  1  0.05791600  0.26838300  0.91086500  1
  Cu  Cu30  1  0.23161700  0.44208400  0.58913500  1
  Cu  Cu31  1  0.41086500  0.76838300  0.55791600  1
  Cu  Cu32  1  0.10691900  0.51416700  0.30541700  1
  Cu  Cu33  1  0.98583300  0.39308100  0.19458300  1
  Cu  Cu34  1  0.26838300  0.91086500  0.05791600  1
  Cu  Cu35  1  0.08913500  0.94208400  0.73161700  1
