# generated using pymatgen
data_Cu2NiC33
_symmetry_space_group_name_H-M   'P 1'
_cell_length_a   8.67653530
_cell_length_b   8.67653530
_cell_length_c   8.67653559
_cell_angle_alpha   60.11938661
_cell_angle_beta   60.11938661
_cell_angle_gamma   60.11938939
_symmetry_Int_Tables_number   1
_chemical_formula_structural   Cu2NiC33
_chemical_formula_sum   'Cu2 Ni1 C33'
_cell_volume   463.12381198
_cell_formula_units_Z   1
loop_
 _symmetry_equiv_pos_site_id
 _symmetry_equiv_pos_as_xyz
  1  'x, y, z'
loop_
 _atom_site_type_symbol
 _atom_site_label
 _atom_site_symmetry_multiplicity
 _atom_site_fract_x
 _atom_site_fract_y
 _atom_site_fract_z
 _atom_site_occupancy
  Ni  Ni0  1  0.14381800  0.14381800  0.14381800  1
  Cu  Cu1  1  0.99722500  0.99722500  0.99722500  1
  Cu  Cu2  1  0.49944500  0.49944500  0.49944500  1
  C  C3  1  0.64505400  0.64505400  0.64505400  1
  C  C4  1  0.85322800  0.85322800  0.85322800  1
  C  C5  1  0.35495500  0.35495500  0.35495500  1
  C  C6  1  0.95442600  0.25239100  0.55049600  1
  C  C7  1  0.55049600  0.95442600  0.25239100  1
  C  C8  1  0.25239100  0.55049600  0.95442600  1
  C  C9  1  0.74386700  0.46199100  0.04285800  1
  C  C10  1  0.46199100  0.04285800  0.74386700  1
  C  C11  1  0.04285800  0.74386700  0.46199100  1
  C  C12  1  0.50499200  0.11335000  0.31185400  1
  C  C13  1  0.31185400  0.50499200  0.11335000  1
  C  C14  1  0.11335000  0.31185400  0.50499200  1
  C  C15  1  0.93982400  0.08671700  0.73893000  1
  C  C16  1  0.00405100  0.18743600  0.38443800  1
  C  C17  1  0.76216300  0.41171300  0.55612600  1
  C  C18  1  0.73893000  0.93982400  0.08671700  1
  C  C19  1  0.55612600  0.76216300  0.41171300  1
  C  C20  1  0.81274300  0.61245800  0.00382000  1
  C  C21  1  0.41171300  0.55612600  0.76216300  1
  C  C22  1  0.91083100  0.26281000  0.06162100  1
  C  C23  1  0.61245800  0.00382000  0.81274300  1
  C  C24  1  0.38443800  0.00405100  0.18743600  1
  C  C25  1  0.08671700  0.73893100  0.93982400  1
  C  C26  1  0.58658800  0.44089700  0.23816200  1
  C  C27  1  0.18743600  0.38443800  0.00405100  1
  C  C28  1  0.44089700  0.23816200  0.58658800  1
  C  C29  1  0.26281000  0.06162100  0.91083100  1
  C  C30  1  0.23816200  0.58658800  0.44089700  1
  C  C31  1  0.00382000  0.81274300  0.61245800  1
  C  C32  1  0.06162100  0.91083100  0.26281000  1
  C  C33  1  0.88507700  0.68975600  0.49390700  1
  C  C34  1  0.68975600  0.49390700  0.88507700  1
  C  C35  1  0.49390700  0.88507700  0.68975600  1
