# generated using pymatgen
data_Cu7(NiC10)3
_symmetry_space_group_name_H-M   'P 1'
_cell_length_a   2.87950200
_cell_length_b   5.81899400
_cell_length_c   20.59599514
_cell_angle_alpha   83.07126762
_cell_angle_beta   90.00000000
_cell_angle_gamma   90.00000000
_symmetry_Int_Tables_number   1
_chemical_formula_structural   Cu7(NiC10)3
_chemical_formula_sum   'Cu7 Ni3 C30'
_cell_volume   342.58218226
_cell_formula_units_Z   1
loop_
 _symmetry_equiv_pos_site_id
 _symmetry_equiv_pos_as_xyz
  1  'x, y, z'
loop_
 _atom_site_type_symbol
 _atom_site_label
 _atom_site_symmetry_multiplicity
 _atom_site_fract_x
 _atom_site_fract_y
 _atom_site_fract_z
 _atom_site_occupancy
  C  C0  1  0.00000000  0.30156800  0.90146200  1
  C  C1  1  0.50000000  0.50000000  0.00000000  1
  C  C2  1  0.00000000  0.69843200  0.09853800  1
  C  C3  1  0.50000000  0.90169500  0.19567200  1
  C  C4  1  0.00000000  0.09804700  0.29872700  1
  C  C5  1  0.50000000  0.29957700  0.39906300  1
  C  C6  1  0.00000000  0.50000000  0.50000000  1
  C  C7  1  0.50000000  0.70042300  0.60093700  1
  C  C8  1  0.00000000  0.90195300  0.70127300  1
  C  C9  1  0.50000000  0.09830500  0.80432800  1
  Ni  Ni10  1  0.00000000  0.00000000  0.50000000  1
  Ni  Ni11  1  0.00000000  0.59812300  0.29727400  1
  Ni  Ni12  1  0.00000000  0.40187700  0.70272600  1
  Cu  Cu13  1  0.50000000  0.00000000  0.00000000  1
  Cu  Cu14  1  0.00000000  0.19788100  0.09818800  1
  Cu  Cu15  1  0.50000000  0.39551000  0.19664500  1
  Cu  Cu16  1  0.50000000  0.79939600  0.39877600  1
  Cu  Cu17  1  0.50000000  0.20060400  0.60122400  1
  Cu  Cu18  1  0.50000000  0.60449000  0.80335500  1
  Cu  Cu19  1  0.00000000  0.80211900  0.90181200  1
  C  C20  1  0.50000000  0.02584100  0.90561200  1
  C  C21  1  0.00000000  0.77635900  0.99623600  1
  C  C22  1  0.00000000  0.22364100  0.00376400  1
  C  C23  1  0.50000000  0.41998600  0.10252100  1
  C  C24  1  0.50000000  0.97415900  0.09438800  1
  C  C25  1  0.00000000  0.62389400  0.19798100  1
  C  C26  1  0.00000000  0.17313700  0.19270100  1
  C  C27  1  0.50000000  0.35741800  0.29311300  1
  C  C28  1  0.50000000  0.83897600  0.30258600  1
  C  C29  1  0.00000000  0.57283800  0.39705000  1
  C  C30  1  0.00000000  0.02635500  0.40064800  1
  C  C31  1  0.50000000  0.75961600  0.49498600  1
  C  C32  1  0.50000000  0.24038400  0.50501400  1
  C  C33  1  0.00000000  0.42716200  0.60295000  1
  C  C34  1  0.00000000  0.97364500  0.59935200  1
  C  C35  1  0.50000000  0.16102400  0.69741400  1
  C  C36  1  0.50000000  0.64258200  0.70688700  1
  C  C37  1  0.00000000  0.37610600  0.80201900  1
  C  C38  1  0.00000000  0.82686300  0.80729900  1
  C  C39  1  0.50000000  0.58001400  0.89747900  1
