# generated using pymatgen
data_Cu2Ni3C23
_symmetry_space_group_name_H-M   'P 1'
_cell_length_a   5.88204517
_cell_length_b   9.74550952
_cell_length_c   5.96095681
_cell_angle_alpha   91.67220092
_cell_angle_beta   119.54978409
_cell_angle_gamma   90.00611671
_symmetry_Int_Tables_number   1
_chemical_formula_structural   Cu2Ni3C23
_chemical_formula_sum   'Cu2 Ni3 C23'
_cell_volume   297.08900340
_cell_formula_units_Z   1
loop_
 _symmetry_equiv_pos_site_id
 _symmetry_equiv_pos_as_xyz
  1  'x, y, z'
loop_
 _atom_site_type_symbol
 _atom_site_label
 _atom_site_symmetry_multiplicity
 _atom_site_fract_x
 _atom_site_fract_y
 _atom_site_fract_z
 _atom_site_occupancy
  C  C0  1  0.65923200  0.90275900  0.31838300  1
  C  C1  1  0.00477400  0.98939900  0.00949000  1
  C  C2  1  0.01030000  0.48886000  0.02057300  1
  C  C3  1  0.33337100  0.40430900  0.66682600  1
  C  C4  1  0.82985700  0.20803500  0.65976400  1
  C  C5  1  0.66399500  0.71319200  0.83390500  1
  C  C6  1  0.16994700  0.71318300  0.83391100  1
  Ni  Ni7  1  0.82997000  0.21801600  0.17110900  1
  Ni  Ni8  1  0.34095900  0.21803500  0.17098200  1
  Ni  Ni9  1  0.17231200  0.71549300  0.34458300  1
  Cu  Cu10  1  0.67035700  0.48855100  0.34076400  1
  Cu  Cu11  1  0.32586000  0.98534800  0.65161600  1
  C  C12  1  0.51766500  0.34833500  0.03510400  1
  C  C13  1  0.66454000  0.11285300  0.32888200  1
  C  C14  1  0.99733500  0.29850400  0.99481800  1
  C  C15  1  0.00614000  0.80035000  0.01223800  1
  C  C16  1  0.16597900  0.09690500  0.33191500  1
  C  C17  1  0.84347900  0.59151700  0.68702600  1
  C  C18  1  0.33085600  0.61769600  0.66168200  1
  C  C19  1  0.47639700  0.84605800  0.95267900  1
  C  C20  1  0.84707700  0.59494800  0.18449200  1
  C  C21  1  0.33742500  0.59496000  0.18442300  1
  C  C22  1  0.96562200  0.34850600  0.47853000  1
  C  C23  1  0.51251000  0.34851300  0.47820700  1
  C  C24  1  0.46609100  0.84341200  0.49255800  1
  C  C25  1  0.02655100  0.84341100  0.49265400  1
  C  C26  1  0.66757200  0.08832500  0.83133200  1
  C  C27  1  0.16412600  0.08836600  0.83155200  1
