# generated using pymatgen
data_Cu(NiC4)2
_symmetry_space_group_name_H-M   'P 1'
_cell_length_a   6.63441500
_cell_length_b   6.66710910
_cell_length_c   8.66393064
_cell_angle_alpha   70.89182295
_cell_angle_beta   70.87039534
_cell_angle_gamma   82.52287728
_symmetry_Int_Tables_number   1
_chemical_formula_structural   Cu(NiC4)2
_chemical_formula_sum   'Cu3 Ni6 C24'
_cell_volume   342.00323509
_cell_formula_units_Z   3
loop_
 _symmetry_equiv_pos_site_id
 _symmetry_equiv_pos_as_xyz
  1  'x, y, z'
loop_
 _atom_site_type_symbol
 _atom_site_label
 _atom_site_symmetry_multiplicity
 _atom_site_fract_x
 _atom_site_fract_y
 _atom_site_fract_z
 _atom_site_occupancy
  C  C0  1  0.83625900  0.49696800  0.67107300  1
  C  C1  1  0.16374100  0.50303200  0.32892700  1
  C  C2  1  0.50283100  0.16157100  0.32855800  1
  C  C3  1  0.49716900  0.83842900  0.67144200  1
  C  C4  1  0.83124700  0.16562000  0.00134900  1
  C  C5  1  0.16875300  0.83438000  0.99865100  1
  Ni  Ni6  1  0.50241500  0.17187400  0.83189300  1
  Ni  Ni7  1  0.83673300  0.16387600  0.49854500  1
  Ni  Ni8  1  0.16497700  0.16456400  0.16068500  1
  Ni  Ni9  1  0.16326700  0.83612400  0.50145500  1
  Ni  Ni10  1  0.49758500  0.82812600  0.16810700  1
  Ni  Ni11  1  0.83502300  0.83543600  0.83931500  1
  Cu  Cu12  1  0.50000000  0.50000000  0.50000000  1
  Cu  Cu13  1  0.82871900  0.49575100  0.16702500  1
  Cu  Cu14  1  0.17128100  0.50424900  0.83297500  1
  C  C15  1  0.14411000  0.81836500  0.77163500  1
  C  C16  1  0.47207300  0.82767100  0.41422600  1
  C  C17  1  0.81220800  0.82109700  0.07137400  1
  C  C18  1  0.49363300  0.48752300  0.73631000  1
  C  C19  1  0.82719800  0.46998400  0.41476500  1
  C  C20  1  0.80733600  0.14793800  0.77238900  1
  C  C21  1  0.17280200  0.53001600  0.58523500  1
  C  C22  1  0.50636700  0.51247700  0.26369000  1
  C  C23  1  0.52792700  0.17232900  0.58577400  1
  C  C24  1  0.15039300  0.47299600  0.08681300  1
  C  C25  1  0.15179300  0.14895700  0.39311300  1
  C  C26  1  0.47848900  0.13996400  0.08848400  1
  C  C27  1  0.84960700  0.52700400  0.91318700  1
  C  C28  1  0.85589000  0.18163500  0.22836500  1
  C  C29  1  0.18779200  0.17890300  0.92862600  1
  C  C30  1  0.84820700  0.85104300  0.60688700  1
  C  C31  1  0.19266400  0.85206200  0.22761100  1
  C  C32  1  0.52151100  0.86003600  0.91151600  1
