# generated using pymatgen
data_Cu5Ni2C17
_symmetry_space_group_name_H-M   'P 1'
_cell_length_a   5.29735258
_cell_length_b   5.29735258
_cell_length_c   10.06315167
_cell_angle_alpha   85.12817603
_cell_angle_beta   85.12817603
_cell_angle_gamma   120.01809072
_symmetry_Int_Tables_number   1
_chemical_formula_structural   Cu5Ni2C17
_chemical_formula_sum   'Cu5 Ni2 C17'
_cell_volume   240.95878338
_cell_formula_units_Z   1
loop_
 _symmetry_equiv_pos_site_id
 _symmetry_equiv_pos_as_xyz
  1  'x, y, z'
loop_
 _atom_site_type_symbol
 _atom_site_label
 _atom_site_symmetry_multiplicity
 _atom_site_fract_x
 _atom_site_fract_y
 _atom_site_fract_z
 _atom_site_occupancy
  C  C0  1  0.84336100  0.66309500  0.75662600  1
  C  C1  1  0.66441300  0.84436300  0.24274500  1
  C  C2  1  0.33690500  0.15663900  0.24337400  1
  C  C3  1  0.15563700  0.33558700  0.75725500  1
  C  C4  1  0.08475800  0.91524200  0.00000000  1
  Ni  Ni5  1  0.75720600  0.24279400  0.00000000  1
  Ni  Ni6  1  0.25271700  0.74728300  0.50000000  1
  Cu  Cu7  1  0.91971700  0.08028300  0.50000000  1
  Cu  Cu8  1  0.00372500  0.51475800  0.24205500  1
  Cu  Cu9  1  0.48524200  0.99627500  0.75794500  1
  Cu  Cu10  1  0.58153200  0.41846800  0.50000000  1
  Cu  Cu11  1  0.42468300  0.57531700  0.00000000  1
  C  C12  1  0.01222500  0.21256900  0.12082800  1
  C  C13  1  0.78743100  0.98777500  0.87917200  1
  C  C14  1  0.90244400  0.40336500  0.61519000  1
  C  C15  1  0.59663500  0.09755600  0.38481000  1
  C  C16  1  0.70024000  0.51795700  0.11648900  1
  C  C17  1  0.48204300  0.29976000  0.88351100  1
  C  C18  1  0.51519900  0.71174900  0.61984400  1
  C  C19  1  0.28825100  0.48480100  0.38015600  1
  C  C20  1  0.40239500  0.88902600  0.11171900  1
  C  C21  1  0.11097400  0.59760500  0.88828100  1
  C  C22  1  0.20889400  0.01662600  0.62096900  1
  C  C23  1  0.98337400  0.79110600  0.37903100  1
