# generated using pymatgen
data_CuNiC13
_symmetry_space_group_name_H-M   'P 1'
_cell_length_a   5.99836074
_cell_length_b   5.99836074
_cell_length_c   17.31818700
_cell_angle_alpha   90.00000000
_cell_angle_beta   90.00000000
_cell_angle_gamma   120.00000820
_symmetry_Int_Tables_number   1
_chemical_formula_structural   CuNiC13
_chemical_formula_sum   'Cu2 Ni2 C26'
_cell_volume   539.63260515
_cell_formula_units_Z   2
loop_
 _symmetry_equiv_pos_site_id
 _symmetry_equiv_pos_as_xyz
  1  'x, y, z'
loop_
 _atom_site_type_symbol
 _atom_site_label
 _atom_site_symmetry_multiplicity
 _atom_site_fract_x
 _atom_site_fract_y
 _atom_site_fract_z
 _atom_site_occupancy
  C  C0  1  0.66666700  0.33333300  0.94804000  1
  C  C1  1  0.33333300  0.66666700  0.81869300  1
  C  C2  1  0.33333300  0.66666700  0.55274100  1
  C  C3  1  0.00000000  0.00000000  0.69697100  1
  C  C4  1  0.66666700  0.33333300  0.18370200  1
  C  C5  1  0.33333300  0.66666700  0.05511700  1
  Ni  Ni6  1  0.00000000  0.00000000  0.34042200  1
  Ni  Ni7  1  0.66666700  0.33333300  0.38464500  1
  Cu  Cu8  1  0.00000000  0.00000000  0.00108600  1
  Cu  Cu9  1  0.66666700  0.33333300  0.63873900  1
  C  C10  1  0.33333300  0.66666700  0.35272800  1
  C  C11  1  0.00000000  0.00000000  0.50294700  1
  C  C12  1  0.16515700  0.33031300  0.93249900  1
  C  C13  1  0.98844000  0.49422000  0.70605200  1
  C  C14  1  0.16515700  0.83484300  0.93249900  1
  C  C15  1  0.50578000  0.49422000  0.70605200  1
  C  C16  1  0.50578000  0.01156000  0.70605200  1
  C  C17  1  0.66968700  0.83484300  0.93249900  1
  C  C18  1  0.69116500  0.84558300  0.42631600  1
  C  C19  1  0.83915900  0.67831900  0.57009300  1
  C  C20  1  0.83915900  0.16084100  0.57009300  1
  C  C21  1  0.15441700  0.84558300  0.42631600  1
  C  C22  1  0.15441700  0.30883500  0.42631600  1
  C  C23  1  0.32168100  0.16084100  0.57009300  1
  C  C24  1  0.50440600  0.00881300  0.30409600  1
  C  C25  1  0.33067600  0.16533800  0.06900000  1
  C  C26  1  0.50440600  0.49559400  0.30409600  1
  C  C27  1  0.83466200  0.16533800  0.06900000  1
  C  C28  1  0.99118700  0.49559400  0.30409600  1
  C  C29  1  0.83466200  0.66932400  0.06900000  1
