# generated using pymatgen
data_Cu(NiC)4
_symmetry_space_group_name_H-M   'P 1'
_cell_length_a   7.53982700
_cell_length_b   11.39918800
_cell_length_c   14.51006900
_cell_angle_alpha   90.00000000
_cell_angle_beta   90.00000000
_cell_angle_gamma   90.00000000
_symmetry_Int_Tables_number   1
_chemical_formula_structural   Cu(NiC)4
_chemical_formula_sum   'Cu4 Ni16 C16'
_cell_volume   1247.11003864
_cell_formula_units_Z   4
loop_
 _symmetry_equiv_pos_site_id
 _symmetry_equiv_pos_as_xyz
  1  'x, y, z'
loop_
 _atom_site_type_symbol
 _atom_site_label
 _atom_site_symmetry_multiplicity
 _atom_site_fract_x
 _atom_site_fract_y
 _atom_site_fract_z
 _atom_site_occupancy
  C  C0  1  0.97339100  0.29829900  0.35116300  1
  C  C1  1  0.52660900  0.70170100  0.85116300  1
  C  C2  1  0.47339100  0.20170100  0.64883700  1
  C  C3  1  0.02660900  0.79829900  0.14883700  1
  C  C4  1  0.33119300  0.10518800  0.00705800  1
  C  C5  1  0.16880700  0.89481200  0.50705800  1
  C  C6  1  0.83119300  0.39481200  0.99294200  1
  C  C7  1  0.66880700  0.60518800  0.49294200  1
  C  C8  1  0.94094700  0.02525500  0.72758700  1
  C  C9  1  0.55905300  0.97474500  0.22758700  1
  C  C10  1  0.44094700  0.47474500  0.27241300  1
  C  C11  1  0.05905300  0.52525500  0.77241300  1
  C  C12  1  0.93786700  0.26991600  0.74874100  1
  C  C13  1  0.56213300  0.73008400  0.24874100  1
  C  C14  1  0.43786700  0.23008400  0.25125900  1
  C  C15  1  0.06213300  0.76991600  0.75125900  1
  Ni  Ni16  1  0.74235100  0.45775900  0.72189900  1
  Ni  Ni17  1  0.75764900  0.54224100  0.22189900  1
  Ni  Ni18  1  0.24235100  0.04224100  0.27810100  1
  Ni  Ni19  1  0.25764900  0.95775900  0.77810100  1
  Ni  Ni20  1  0.75487900  0.12405000  0.85667900  1
  Ni  Ni21  1  0.74512100  0.87595000  0.35667900  1
  Ni  Ni22  1  0.25487900  0.37595000  0.14332100  1
  Ni  Ni23  1  0.24512100  0.62405000  0.64332100  1
  Ni  Ni24  1  0.72280500  0.15912300  0.16129900  1
  Ni  Ni25  1  0.77719500  0.84087700  0.66129900  1
  Ni  Ni26  1  0.22280500  0.34087700  0.83870100  1
  Ni  Ni27  1  0.27719500  0.65912300  0.33870100  1
  Ni  Ni28  1  0.98352900  0.17330000  0.58708600  1
  Ni  Ni29  1  0.51647100  0.82670000  0.08708600  1
  Ni  Ni30  1  0.48352900  0.32670000  0.41291400  1
  Ni  Ni31  1  0.01647100  0.67330000  0.91291400  1
  Cu  Cu32  1  0.48114800  0.02341000  0.51905600  1
  Cu  Cu33  1  0.01885200  0.97659000  0.01905600  1
  Cu  Cu34  1  0.98114800  0.47659000  0.48094400  1
  Cu  Cu35  1  0.51885200  0.52341000  0.98094400  1
