# generated using pymatgen
data_Cu3NiC20
_symmetry_space_group_name_H-M   'P 1'
_cell_length_a   5.91865600
_cell_length_b   4.92036100
_cell_length_c   10.10035610
_cell_angle_alpha   89.31014378
_cell_angle_beta   90.00000000
_cell_angle_gamma   90.00000000
_symmetry_Int_Tables_number   1
_chemical_formula_structural   Cu3NiC20
_chemical_formula_sum   'Cu3 Ni1 C20'
_cell_volume   294.12048412
_cell_formula_units_Z   1
loop_
 _symmetry_equiv_pos_site_id
 _symmetry_equiv_pos_as_xyz
  1  'x, y, z'
loop_
 _atom_site_type_symbol
 _atom_site_label
 _atom_site_symmetry_multiplicity
 _atom_site_fract_x
 _atom_site_fract_y
 _atom_site_fract_z
 _atom_site_occupancy
  Ni  Ni0  1  0.00000000  0.03531200  0.27665000  1
  Cu  Cu1  1  0.00000000  0.47979900  0.77152600  1
  Cu  Cu2  1  0.50000000  0.54224900  0.22069200  1
  Cu  Cu3  1  0.50000000  0.97954600  0.73204200  1
  C  C4  1  0.50000000  0.10469900  0.40028300  1
  C  C5  1  0.50000000  0.41054400  0.90484700  1
  C  C6  1  0.00000000  0.56093600  0.09201900  1
  C  C7  1  0.00000000  0.91557500  0.60131300  1
  C  C8  1  0.50000000  0.14097300  0.54992500  1
  C  C9  1  0.30281700  0.26442300  0.32840200  1
  C  C10  1  0.69718300  0.26442300  0.32840200  1
  C  C11  1  0.00000000  0.22004500  0.62768100  1
  C  C12  1  0.00000000  0.25687700  0.10556000  1
  C  C13  1  0.29817700  0.26650900  0.83068700  1
  C  C14  1  0.70182300  0.26650900  0.83068700  1
  C  C15  1  0.50000000  0.33555500  0.05357600  1
  C  C16  1  0.00000000  0.65324600  0.94771200  1
  C  C17  1  0.79113400  0.69905200  0.16758600  1
  C  C18  1  0.20886600  0.69905200  0.16758600  1
  C  C19  1  0.50000000  0.71694400  0.88270500  1
  C  C20  1  0.50000000  0.79912300  0.36864600  1
  C  C21  1  0.79675200  0.76865000  0.67737700  1
  C  C22  1  0.20324800  0.76865000  0.67737700  1
  C  C23  1  0.00000000  0.85131100  0.45671600  1
