# generated using pymatgen
data_Cu2(NiC4)3
_symmetry_space_group_name_H-M   'P 1'
_cell_length_a   11.42698400
_cell_length_b   8.81547700
_cell_length_c   9.47355989
_cell_angle_alpha   63.56657207
_cell_angle_beta   90.00000000
_cell_angle_gamma   90.00000000
_symmetry_Int_Tables_number   1
_chemical_formula_structural   Cu2(NiC4)3
_chemical_formula_sum   'Cu8 Ni12 C48'
_cell_volume   854.54127914
_cell_formula_units_Z   4
loop_
 _symmetry_equiv_pos_site_id
 _symmetry_equiv_pos_as_xyz
  1  'x, y, z'
loop_
 _atom_site_type_symbol
 _atom_site_label
 _atom_site_symmetry_multiplicity
 _atom_site_fract_x
 _atom_site_fract_y
 _atom_site_fract_z
 _atom_site_occupancy
  C  C0  1  0.83673700  0.92376400  0.58528100  1
  C  C1  1  0.66326300  0.92376400  0.08528100  1
  C  C2  1  0.33673700  0.07623600  0.91471900  1
  C  C3  1  0.16326300  0.07623600  0.41471900  1
  C  C4  1  0.10305200  0.59698700  0.71819300  1
  C  C5  1  0.60305200  0.40301300  0.78180700  1
  C  C6  1  0.39694800  0.59698700  0.21819300  1
  C  C7  1  0.89694800  0.40301300  0.28180700  1
  Ni  Ni8  1  0.02304900  0.90290900  0.81863700  1
  Ni  Ni9  1  0.52746000  0.73338900  0.86206200  1
  Ni  Ni10  1  0.47695100  0.90290900  0.31863700  1
  Ni  Ni11  1  0.38570300  0.67727900  0.63329600  1
  Ni  Ni12  1  0.97254000  0.73338900  0.36206200  1
  Ni  Ni13  1  0.88570300  0.32272100  0.86670400  1
  Ni  Ni14  1  0.11429700  0.67727900  0.13329600  1
  Ni  Ni15  1  0.02746000  0.26661100  0.63793800  1
  Ni  Ni16  1  0.61429700  0.32272100  0.36670400  1
  Ni  Ni17  1  0.52304900  0.09709100  0.68136300  1
  Ni  Ni18  1  0.47254000  0.26661100  0.13793800  1
  Ni  Ni19  1  0.97695100  0.09709100  0.18136300  1
  Cu  Cu20  1  0.84545200  0.65666300  0.97544200  1
  Cu  Cu21  1  0.27177700  0.43870200  0.98154200  1
  Cu  Cu22  1  0.65454800  0.65666300  0.47544200  1
  Cu  Cu23  1  0.77177700  0.56129800  0.51845800  1
  Cu  Cu24  1  0.22822300  0.43870200  0.48154200  1
  Cu  Cu25  1  0.34545200  0.34333700  0.52455800  1
  Cu  Cu26  1  0.72822300  0.56129800  0.01845800  1
  Cu  Cu27  1  0.15454800  0.34333700  0.02455800  1
  C  C28  1  0.89575300  0.90995600  0.77609100  1
  C  C29  1  0.57743500  0.91018800  0.72679100  1
  C  C30  1  0.50617900  0.75996300  0.00645300  1
  C  C31  1  0.10689700  0.81706800  0.75570700  1
  C  C32  1  0.40491900  0.71191700  0.78747300  1
  C  C33  1  0.46766200  0.82687700  0.50732300  1
  C  C34  1  0.60424700  0.90995600  0.27609100  1
  C  C35  1  0.61083200  0.59579700  0.87321800  1
  C  C36  1  0.92256500  0.91018800  0.22679100  1
  C  C37  1  0.99382100  0.75996300  0.50645300  1
  C  C38  1  0.26008900  0.71271300  0.58652900  1
  C  C39  1  0.39310300  0.81706800  0.25570700  1
  C  C40  1  0.20471700  0.40754600  0.93333400  1
  C  C41  1  0.93915900  0.49016200  0.83739600  1
  C  C42  1  0.43915900  0.50983800  0.66260400  1
  C  C43  1  0.09508100  0.71191700  0.28747300  1
  C  C44  1  0.70471700  0.59245400  0.56666600  1
  C  C45  1  0.03233800  0.82687700  0.00732200  1
  C  C46  1  0.88916800  0.59579700  0.37321800  1
  C  C47  1  0.76008900  0.28728700  0.91347100  1
  C  C48  1  0.23991100  0.71271300  0.08652900  1
  C  C49  1  0.11083200  0.40420300  0.62678200  1
  C  C50  1  0.96766200  0.17312300  0.99267700  1
  C  C51  1  0.29528300  0.40754600  0.43333400  1
  C  C52  1  0.90491900  0.28808300  0.71252700  1
  C  C53  1  0.56084100  0.49016200  0.33739600  1
  C  C54  1  0.06084100  0.50983800  0.16260400  1
  C  C55  1  0.79528300  0.59245400  0.06666600  1
  C  C56  1  0.60689700  0.18293200  0.74429300  1
  C  C57  1  0.73991100  0.28728700  0.41347100  1
  C  C58  1  0.00617900  0.24003700  0.49354700  1
  C  C59  1  0.07743500  0.08981200  0.77320900  1
  C  C60  1  0.38916800  0.40420300  0.12678200  1
  C  C61  1  0.39575300  0.09004400  0.72390900  1
  C  C62  1  0.53233800  0.17312300  0.49267700  1
  C  C63  1  0.59508100  0.28808300  0.21252700  1
  C  C64  1  0.89310300  0.18293200  0.24429300  1
  C  C65  1  0.49382100  0.24003700  0.99354700  1
  C  C66  1  0.42256500  0.08981200  0.27320900  1
  C  C67  1  0.10424700  0.09004400  0.22390900  1
