# generated using pymatgen
data_Cu7NiC3
_symmetry_space_group_name_H-M   'P 1'
_cell_length_a   5.84956978
_cell_length_b   5.84956978
_cell_length_c   5.84957020
_cell_angle_alpha   63.62607837
_cell_angle_beta   63.62607837
_cell_angle_gamma   63.62607797
_symmetry_Int_Tables_number   1
_chemical_formula_structural   Cu7NiC3
_chemical_formula_sum   'Cu7 Ni1 C3'
_cell_volume   152.86998121
_cell_formula_units_Z   1
loop_
 _symmetry_equiv_pos_site_id
 _symmetry_equiv_pos_as_xyz
  1  'x, y, z'
loop_
 _atom_site_type_symbol
 _atom_site_label
 _atom_site_symmetry_multiplicity
 _atom_site_fract_x
 _atom_site_fract_y
 _atom_site_fract_z
 _atom_site_occupancy
  C  C0  1  0.38588800  0.86664000  0.38588800  1
  C  C1  1  0.86664000  0.38588800  0.38588800  1
  C  C2  1  0.38588800  0.38588800  0.86664000  1
  Ni  Ni3  1  0.61496600  0.61496600  0.61496600  1
  Cu  Cu4  1  0.13471000  0.13471000  0.13471000  1
  Cu  Cu5  1  0.12772200  0.58181600  0.12772200  1
  Cu  Cu6  1  0.58181600  0.12772200  0.12772200  1
  Cu  Cu7  1  0.62201400  0.62201400  0.16321100  1
  Cu  Cu8  1  0.12772200  0.12772200  0.58181600  1
  Cu  Cu9  1  0.16321100  0.62201400  0.62201400  1
  Cu  Cu10  1  0.62201400  0.16321100  0.62201400  1
