# generated using pymatgen
data_Cu36NiC37
_symmetry_space_group_name_H-M   'P 1'
_cell_length_a   9.90011795
_cell_length_b   9.90011795
_cell_length_c   16.95250765
_cell_angle_alpha   88.96307732
_cell_angle_beta   88.96307732
_cell_angle_gamma   62.17942881
_symmetry_Int_Tables_number   1
_chemical_formula_structural   Cu36NiC37
_chemical_formula_sum   'Cu72 Ni2 C74'
_cell_volume   1469.17334866
_cell_formula_units_Z   2
loop_
 _symmetry_equiv_pos_site_id
 _symmetry_equiv_pos_as_xyz
  1  'x, y, z'
loop_
 _atom_site_type_symbol
 _atom_site_label
 _atom_site_symmetry_multiplicity
 _atom_site_fract_x
 _atom_site_fract_y
 _atom_site_fract_z
 _atom_site_occupancy
  C  C0  1  0.23454800  0.18032000  0.75638400  1
  C  C1  1  0.81968000  0.76545200  0.74361600  1
  C  C2  1  0.76545200  0.81968000  0.24361600  1
  C  C3  1  0.18032000  0.23454800  0.25638400  1
  C  C4  1  0.65300700  0.34699300  0.75000000  1
  C  C5  1  0.34699300  0.65300700  0.25000000  1
  C  C6  1  0.89299000  0.41994500  0.86916300  1
  C  C7  1  0.58005500  0.10701000  0.63083700  1
  C  C8  1  0.10701000  0.58005500  0.13083700  1
  C  C9  1  0.41994500  0.89299000  0.36916300  1
  C  C10  1  0.98299200  0.13194900  0.64755800  1
  C  C11  1  0.86805100  0.01700800  0.85244200  1
  C  C12  1  0.01700800  0.86805100  0.35244200  1
  C  C13  1  0.13194900  0.98299200  0.14755800  1
  C  C14  1  0.48852100  0.86841300  0.85030800  1
  C  C15  1  0.13158700  0.51147900  0.64969200  1
  C  C16  1  0.51147900  0.13158700  0.14969200  1
  C  C17  1  0.86841300  0.48852100  0.35030800  1
  C  C18  1  0.36645900  0.37094800  0.86900300  1
  C  C19  1  0.62905200  0.63354100  0.63099700  1
  C  C20  1  0.63354100  0.62905200  0.13099700  1
  C  C21  1  0.37094800  0.36645900  0.36900300  1
  C  C22  1  0.48599000  0.14960700  0.01939100  1
  C  C23  1  0.85039300  0.51401000  0.48060900  1
  C  C24  1  0.51401000  0.85039300  0.98060900  1
  C  C25  1  0.14960700  0.48599000  0.51939100  1
  C  C26  1  0.83790600  0.97678200  0.65118700  1
  C  C27  1  0.02321800  0.16209400  0.84881300  1
  C  C28  1  0.16209400  0.02321800  0.34881300  1
  C  C29  1  0.97678200  0.83790600  0.15118700  1
  C  C30  1  0.91272400  0.21507900  0.52037600  1
  C  C31  1  0.78492100  0.08727600  0.97962400  1
  C  C32  1  0.08727600  0.78492100  0.47962400  1
  C  C33  1  0.21507900  0.91272400  0.02037600  1
  C  C34  1  0.24805100  0.22047700  0.95588900  1
  C  C35  1  0.77952300  0.75194900  0.54411100  1
  C  C36  1  0.75194900  0.77952300  0.04411100  1
  C  C37  1  0.22047700  0.24805100  0.45588900  1
  C  C38  1  0.60337200  0.61027200  0.84416100  1
  C  C39  1  0.38972800  0.39662800  0.65583900  1
  C  C40  1  0.39662800  0.38972800  0.15583900  1
  C  C41  1  0.61027200  0.60337200  0.34416100  1
  C  C42  1  0.55843300  0.29437700  0.95715900  1
  C  C43  1  0.70562300  0.44156700  0.54284100  1
  C  C44  1  0.44156700  0.70562300  0.04284100  1
  C  C45  1  0.29437700  0.55843300  0.45715900  1
  C  C46  1  0.04506400  0.53523100  0.85558400  1
  C  C47  1  0.46476900  0.95493600  0.64441600  1
  C  C48  1  0.95493600  0.46476900  0.14441600  1
  C  C49  1  0.53523100  0.04506400  0.35558400  1
  C  C50  1  0.16452700  0.86084800  0.82378200  1
  C  C51  1  0.13915200  0.83547300  0.67621800  1
  C  C52  1  0.83547300  0.13915200  0.17621800  1
  C  C53  1  0.86084800  0.16452700  0.32378200  1
  C  C54  1  0.30782500  0.59901700  0.73243500  1
  C  C55  1  0.40098300  0.69217500  0.76756500  1
  C  C56  1  0.69217500  0.40098300  0.26756500  1
  C  C57  1  0.59901700  0.30782500  0.23243500  1
  C  C58  1  0.32309600  0.16619900  0.53078400  1
  C  C59  1  0.83380100  0.67690400  0.96921600  1
  C  C60  1  0.67690400  0.83380100  0.46921600  1
  C  C61  1  0.16619900  0.32309600  0.03078400  1
  C  C62  1  0.11251700  0.18834400  0.53249800  1
  C  C63  1  0.81165600  0.88748300  0.96750200  1
  C  C64  1  0.88748300  0.81165600  0.46750200  1
  C  C65  1  0.18834400  0.11251700  0.03249800  1
  C  C66  1  0.77791700  0.32329500  0.97368900  1
  C  C67  1  0.67670500  0.22208300  0.52631100  1
  C  C68  1  0.22208300  0.67670500  0.02631100  1
  C  C69  1  0.32329500  0.77791700  0.47368900  1
  C  C70  1  0.71685500  0.31007400  0.05701100  1
  C  C71  1  0.68992600  0.28314500  0.44298900  1
  C  C72  1  0.28314500  0.68992600  0.94298900  1
  C  C73  1  0.31007400  0.71685500  0.55701100  1
  Ni  Ni74  1  0.29598300  0.70401700  0.75000000  1
  Ni  Ni75  1  0.70401700  0.29598300  0.25000000  1
  Cu  Cu76  1  0.44846100  0.05830000  0.66473400  1
  Cu  Cu77  1  0.94170000  0.55153900  0.83526600  1
  Cu  Cu78  1  0.55153900  0.94170000  0.33526600  1
  Cu  Cu79  1  0.05830000  0.44846100  0.16473400  1
  Cu  Cu80  1  0.03700200  0.26157900  0.83219500  1
  Cu  Cu81  1  0.73842100  0.96299800  0.66780500  1
  Cu  Cu82  1  0.96299800  0.73842100  0.16780500  1
  Cu  Cu83  1  0.26157900  0.03700200  0.33219500  1
  Cu  Cu84  1  0.74635200  0.45748800  0.81912700  1
  Cu  Cu85  1  0.54251200  0.25364800  0.68087300  1
  Cu  Cu86  1  0.25364800  0.54251200  0.18087300  1
  Cu  Cu87  1  0.45748800  0.74635200  0.31912700  1
  Cu  Cu88  1  0.19702700  0.75008900  0.81445100  1
  Cu  Cu89  1  0.24991100  0.80297300  0.68554900  1
  Cu  Cu90  1  0.80297300  0.24991100  0.18554900  1
  Cu  Cu91  1  0.75008900  0.19702700  0.31445100  1
  Cu  Cu92  1  0.73789600  0.16293600  0.82072100  1
  Cu  Cu93  1  0.83706400  0.26210400  0.67927900  1
  Cu  Cu94  1  0.26210400  0.83706400  0.17927900  1
  Cu  Cu95  1  0.16293600  0.73789600  0.32072100  1
  Cu  Cu96  1  0.13015600  0.10479500  0.68525900  1
  Cu  Cu97  1  0.89520500  0.86984400  0.81474100  1
  Cu  Cu98  1  0.86984400  0.89520500  0.31474100  1
  Cu  Cu99  1  0.10479500  0.13015600  0.18525900  1
  Cu  Cu100  1  0.97146900  0.98538600  0.63431100  1
  Cu  Cu101  1  0.01461400  0.02853100  0.86568900  1
  Cu  Cu102  1  0.02853100  0.01461400  0.36568900  1
  Cu  Cu103  1  0.98538600  0.97146900  0.13431100  1
  Cu  Cu104  1  0.00249100  0.18992900  0.55587700  1
  Cu  Cu105  1  0.81007100  0.99750900  0.94412300  1
  Cu  Cu106  1  0.99750900  0.81007100  0.44412300  1
  Cu  Cu107  1  0.18992900  0.00249100  0.05587700  1
  Cu  Cu108  1  0.14529300  0.36594800  0.68755600  1
  Cu  Cu109  1  0.63405200  0.85470700  0.81244400  1
  Cu  Cu110  1  0.85470700  0.63405200  0.31244400  1
  Cu  Cu111  1  0.36594800  0.14529300  0.18755600  1
  Cu  Cu112  1  0.33992700  0.97157400  0.80848600  1
  Cu  Cu113  1  0.02842600  0.66007300  0.69151400  1
  Cu  Cu114  1  0.66007300  0.02842600  0.19151400  1
  Cu  Cu115  1  0.97157400  0.33992700  0.30848600  1
  Cu  Cu116  1  0.46704300  0.92869800  0.93788600  1
  Cu  Cu117  1  0.07130200  0.53295700  0.56211400  1
  Cu  Cu118  1  0.53295700  0.07130200  0.06211400  1
  Cu  Cu119  1  0.92869800  0.46704300  0.43788600  1
  Cu  Cu120  1  0.50035800  0.70279100  0.85749900  1
  Cu  Cu121  1  0.29720900  0.49964200  0.64250100  1
  Cu  Cu122  1  0.49964200  0.29720900  0.14250100  1
  Cu  Cu123  1  0.70279100  0.50035800  0.35749900  1
  Cu  Cu124  1  0.34097600  0.24805400  0.82607300  1
  Cu  Cu125  1  0.75194600  0.65902400  0.67392700  1
  Cu  Cu126  1  0.65902400  0.75194600  0.17392700  1
  Cu  Cu127  1  0.24805400  0.34097600  0.32607300  1
  Cu  Cu128  1  0.46255100  0.42816300  0.81946000  1
  Cu  Cu129  1  0.57183700  0.53744900  0.68054000  1
  Cu  Cu130  1  0.53744900  0.57183700  0.18054000  1
  Cu  Cu131  1  0.42816300  0.46255100  0.31946000  1
  Cu  Cu132  1  0.47009000  0.27681400  0.94417800  1
  Cu  Cu133  1  0.72318600  0.52991000  0.55582200  1
  Cu  Cu134  1  0.52991000  0.72318600  0.05582200  1
  Cu  Cu135  1  0.27681400  0.47009000  0.44417800  1
  Cu  Cu136  1  0.21641400  0.49457700  0.90059200  1
  Cu  Cu137  1  0.50542300  0.78358600  0.59940800  1
  Cu  Cu138  1  0.78358600  0.50542300  0.09940800  1
  Cu  Cu139  1  0.49457700  0.21641400  0.40059200  1
  Cu  Cu140  1  0.23465200  0.17876500  0.50049200  1
  Cu  Cu141  1  0.82123500  0.76534800  0.99950800  1
  Cu  Cu142  1  0.76534800  0.82123500  0.49950800  1
  Cu  Cu143  1  0.17876500  0.23465200  0.00049200  1
  Cu  Cu144  1  0.72524500  0.27361000  0.00259100  1
  Cu  Cu145  1  0.72639000  0.27475500  0.49740900  1
  Cu  Cu146  1  0.27475500  0.72639000  0.99740900  1
  Cu  Cu147  1  0.27361000  0.72524500  0.50259100  1
