# generated using pymatgen
data_Cu6NiC29
_symmetry_space_group_name_H-M   'P 1'
_cell_length_a   8.52701418
_cell_length_b   8.52701418
_cell_length_c   8.52701527
_cell_angle_alpha   60.97894794
_cell_angle_beta   60.97894794
_cell_angle_gamma   60.97894835
_symmetry_Int_Tables_number   1
_chemical_formula_structural   Cu6NiC29
_chemical_formula_sum   'Cu6 Ni1 C29'
_cell_volume   448.07403656
_cell_formula_units_Z   1
loop_
 _symmetry_equiv_pos_site_id
 _symmetry_equiv_pos_as_xyz
  1  'x, y, z'
loop_
 _atom_site_type_symbol
 _atom_site_label
 _atom_site_symmetry_multiplicity
 _atom_site_fract_x
 _atom_site_fract_y
 _atom_site_fract_z
 _atom_site_occupancy
  C  C0  1  0.00534700  0.00534700  0.00534700  1
  C  C1  1  0.35771100  0.35771100  0.35771100  1
  C  C2  1  0.49915500  0.49915500  0.49915500  1
  C  C3  1  0.14349300  0.14349300  0.14349300  1
  C  C4  1  0.64114000  0.64114000  0.64114000  1
  Ni  Ni5  1  0.85738200  0.85738200  0.85738200  1
  Cu  Cu6  1  0.45188400  0.74690900  0.04717100  1
  Cu  Cu7  1  0.74690900  0.04717100  0.45188400  1
  Cu  Cu8  1  0.04717100  0.45188400  0.74690900  1
  Cu  Cu9  1  0.95167400  0.54238800  0.25530700  1
  Cu  Cu10  1  0.25530700  0.95167400  0.54238800  1
  Cu  Cu11  1  0.54238800  0.25530700  0.95167400  1
  C  C12  1  0.68013700  0.89080800  0.49561900  1
  C  C13  1  0.89080800  0.49561900  0.68013700  1
  C  C14  1  0.49561900  0.68013700  0.89080800  1
  C  C15  1  0.25748100  0.90832600  0.05932900  1
  C  C16  1  0.61103800  0.81858300  0.00740400  1
  C  C17  1  0.44130300  0.59396700  0.24510400  1
  C  C18  1  0.90832600  0.05932900  0.25748100  1
  C  C19  1  0.59396700  0.24510400  0.44130300  1
  C  C20  1  0.98722000  0.39050600  0.18617100  1
  C  C21  1  0.24510400  0.44130300  0.59396700  1
  C  C22  1  0.93677100  0.74744500  0.08834900  1
  C  C23  1  0.18617100  0.98722000  0.39050600  1
  C  C24  1  0.81858300  0.00740400  0.61103800  1
  C  C25  1  0.05932900  0.25748100  0.90832600  1
  C  C26  1  0.75164800  0.56130000  0.40748800  1
  C  C27  1  0.00740400  0.61103800  0.81858300  1
  C  C28  1  0.40748800  0.75164800  0.56130000  1
  C  C29  1  0.08834900  0.93677100  0.74744500  1
  C  C30  1  0.56130000  0.40748800  0.75164800  1
  C  C31  1  0.39050600  0.18617100  0.98722000  1
  C  C32  1  0.74744500  0.08834900  0.93677100  1
  C  C33  1  0.51235800  0.31575400  0.10635100  1
  C  C34  1  0.10635100  0.51235800  0.31575400  1
  C  C35  1  0.31575400  0.10635100  0.51235800  1
