# generated using pymatgen
data_CuNiC11
_symmetry_space_group_name_H-M   'P 1'
_cell_length_a   7.28391300
_cell_length_b   5.75699200
_cell_length_c   9.90971527
_cell_angle_alpha   88.63908998
_cell_angle_beta   90.00000000
_cell_angle_gamma   90.00000000
_symmetry_Int_Tables_number   1
_chemical_formula_structural   CuNiC11
_chemical_formula_sum   'Cu2 Ni2 C22'
_cell_volume   415.43112514
_cell_formula_units_Z   2
loop_
 _symmetry_equiv_pos_site_id
 _symmetry_equiv_pos_as_xyz
  1  'x, y, z'
loop_
 _atom_site_type_symbol
 _atom_site_label
 _atom_site_symmetry_multiplicity
 _atom_site_fract_x
 _atom_site_fract_y
 _atom_site_fract_z
 _atom_site_occupancy
  C  C0  1  0.25000000  0.76196300  0.91690200  1
  C  C1  1  0.00617600  0.25618600  0.73916100  1
  C  C2  1  0.49382400  0.25618600  0.73916100  1
  C  C3  1  0.50617600  0.74381400  0.26083900  1
  C  C4  1  0.99382400  0.74381400  0.26083900  1
  C  C5  1  0.75000000  0.23803700  0.08309800  1
  C  C6  1  0.75000000  0.77858600  0.63357900  1
  C  C7  1  0.25000000  0.22141400  0.36642100  1
  Ni  Ni8  1  0.25000000  0.70620500  0.58221100  1
  Ni  Ni9  1  0.75000000  0.29379500  0.41778900  1
  Cu  Cu10  1  0.75000000  0.73952200  0.92567700  1
  Cu  Cu11  1  0.25000000  0.26047800  0.07432300  1
  C  C12  1  0.25000000  0.27274700  0.94318900  1
  C  C13  1  0.75000000  0.94142400  0.86247300  1
  C  C14  1  0.75000000  0.55075100  0.85480400  1
  C  C15  1  0.07529400  0.76665700  0.66601300  1
  C  C16  1  0.42470600  0.76665700  0.66601300  1
  C  C17  1  0.25000000  0.43959900  0.55551500  1
  C  C18  1  0.75000000  0.15708700  0.55536800  1
  C  C19  1  0.25000000  0.84291300  0.44463200  1
  C  C20  1  0.75000000  0.56040100  0.44448500  1
  C  C21  1  0.57529400  0.23334300  0.33398700  1
  C  C22  1  0.92470600  0.23334300  0.33398700  1
  C  C23  1  0.25000000  0.44924900  0.14519600  1
  C  C24  1  0.25000000  0.05857600  0.13752700  1
  C  C25  1  0.75000000  0.72725300  0.05681100  1
