# generated using pymatgen
data_Cu2Ni2C11
_symmetry_space_group_name_H-M   'P 1'
_cell_length_a   11.08150900
_cell_length_b   5.06885200
_cell_length_c   6.18676286
_cell_angle_alpha   89.91470591
_cell_angle_beta   90.00000000
_cell_angle_gamma   90.00000000
_symmetry_Int_Tables_number   1
_chemical_formula_structural   Cu2Ni2C11
_chemical_formula_sum   'Cu4 Ni4 C22'
_cell_volume   347.51335767
_cell_formula_units_Z   2
loop_
 _symmetry_equiv_pos_site_id
 _symmetry_equiv_pos_as_xyz
  1  'x, y, z'
loop_
 _atom_site_type_symbol
 _atom_site_label
 _atom_site_symmetry_multiplicity
 _atom_site_fract_x
 _atom_site_fract_y
 _atom_site_fract_z
 _atom_site_occupancy
  C  C0  1  0.08763400  0.56991400  0.76038500  1
  C  C1  1  0.58763400  0.43008600  0.23961500  1
  C  C2  1  0.92075300  0.91893000  0.24651800  1
  C  C3  1  0.41463800  0.06368200  0.24786800  1
  C  C4  1  0.42075300  0.08107000  0.75348200  1
  C  C5  1  0.91463800  0.93631800  0.75213200  1
  Ni  Ni6  1  0.16452900  0.08868400  0.01701600  1
  Ni  Ni7  1  0.66452900  0.91131600  0.98298400  1
  Ni  Ni8  1  0.32903600  0.56958800  0.50145100  1
  Ni  Ni9  1  0.82903600  0.43041200  0.49854900  1
  Cu  Cu10  1  0.83407400  0.41431600  0.00388900  1
  Cu  Cu11  1  0.33407400  0.58568400  0.99611100  1
  Cu  Cu12  1  0.66088500  0.92952800  0.49301800  1
  Cu  Cu13  1  0.16088500  0.07047200  0.50698200  1
  C  C14  1  0.90361900  0.52626200  0.77546700  1
  C  C15  1  0.40131700  0.47551500  0.77152400  1
  C  C16  1  0.33936700  0.90953400  0.99803400  1
  C  C17  1  0.83936700  0.09046600  0.00196600  1
  C  C18  1  0.69622000  0.52412000  0.00625400  1
  C  C19  1  0.19622000  0.47588000  0.99374600  1
  C  C20  1  0.90131700  0.52448500  0.22847600  1
  C  C21  1  0.40361900  0.47373800  0.22453300  1
  C  C22  1  0.59073800  0.03895300  0.27681900  1
  C  C23  1  0.08648800  0.99226500  0.29151300  1
  C  C24  1  0.67917700  0.60495900  0.47653800  1
  C  C25  1  0.17917700  0.39504100  0.52346200  1
  C  C26  1  0.30346200  0.94740200  0.49824500  1
  C  C27  1  0.80346200  0.05259800  0.50175500  1
  C  C28  1  0.58648800  0.00773500  0.70848700  1
  C  C29  1  0.09073800  0.96104700  0.72318100  1
