# generated using pymatgen
data_Cu16Ni4C7
_symmetry_space_group_name_H-M   'P 1'
_cell_length_a   9.96065667
_cell_length_b   9.93187761
_cell_length_c   9.73036057
_cell_angle_alpha   60.86342236
_cell_angle_beta   60.56781309
_cell_angle_gamma   58.56876456
_symmetry_Int_Tables_number   1
_chemical_formula_structural   Cu16Ni4C7
_chemical_formula_sum   'Cu32 Ni8 C14'
_cell_volume   680.02720761
_cell_formula_units_Z   2
loop_
 _symmetry_equiv_pos_site_id
 _symmetry_equiv_pos_as_xyz
  1  'x, y, z'
loop_
 _atom_site_type_symbol
 _atom_site_label
 _atom_site_symmetry_multiplicity
 _atom_site_fract_x
 _atom_site_fract_y
 _atom_site_fract_z
 _atom_site_occupancy
  C  C0  1  0.95863400  0.54136600  0.95863400  1
  C  C1  1  0.54101400  0.95898600  0.95898600  1
  C  C2  1  0.29101400  0.70898600  0.70898600  1
  C  C3  1  0.70863400  0.29136600  0.70863400  1
  C  C4  1  0.54136600  0.95863400  0.54136600  1
  C  C5  1  0.95898600  0.54101400  0.54101400  1
  C  C6  1  0.70898600  0.29101400  0.29101400  1
  C  C7  1  0.29136600  0.70863400  0.29136600  1
  C  C8  1  0.12500000  0.12500000  0.12500000  1
  C  C9  1  0.12500000  0.12500000  0.62500000  1
  C  C10  1  0.12500000  0.62500000  0.12500000  1
  C  C11  1  0.62500000  0.12500000  0.12500000  1
  Ni  Ni12  1  0.91604500  0.91312100  0.90287000  1
  Ni  Ni13  1  0.33687900  0.33395500  0.98203600  1
  Ni  Ni14  1  0.90287000  0.26796400  0.91604500  1
  Ni  Ni15  1  0.26796400  0.90287000  0.91312100  1
  Ni  Ni16  1  0.98203600  0.34713000  0.33687900  1
  Ni  Ni17  1  0.34713000  0.98203600  0.33395500  1
  Ni  Ni18  1  0.91312100  0.91604500  0.26796400  1
  Ni  Ni19  1  0.33395500  0.33687900  0.34713000  1
  C  C20  1  0.50000000  0.50000000  0.50000000  1
  C  C21  1  0.75000000  0.75000000  0.75000000  1
  Cu  Cu22  1  0.94404200  0.76861600  0.01487900  1
  Cu  Cu23  1  0.31404900  0.56836200  0.55902300  1
  Cu  Cu24  1  0.03279200  0.94087100  0.76428600  1
  Cu  Cu25  1  0.30912900  0.21720800  0.98794900  1
  Cu  Cu26  1  0.76428600  0.26205100  0.03279200  1
  Cu  Cu27  1  0.22098500  0.48097300  0.97672800  1
  Cu  Cu28  1  0.55902300  0.55856500  0.31404900  1
  Cu  Cu29  1  0.56836200  0.31404900  0.55856500  1
  Cu  Cu30  1  0.32131400  0.97672800  0.48097300  1
  Cu  Cu31  1  0.26205100  0.76428600  0.94087100  1
  Cu  Cu32  1  0.48138400  0.30595800  0.97753700  1
  Cu  Cu33  1  0.55856500  0.55902300  0.56836200  1
  Cu  Cu34  1  0.01487900  0.27246300  0.94404200  1
  Cu  Cu35  1  0.27246300  0.01487900  0.76861600  1
  Cu  Cu36  1  0.76902700  0.02901500  0.92868600  1
  Cu  Cu37  1  0.97672800  0.32131400  0.22098500  1
  Cu  Cu38  1  0.27327200  0.92868600  0.02901500  1
  Cu  Cu39  1  0.48097300  0.22098500  0.32131400  1
  Cu  Cu40  1  0.97753700  0.23512100  0.48138400  1
  Cu  Cu41  1  0.23512100  0.97753700  0.30595800  1
  Cu  Cu42  1  0.69143500  0.69097700  0.68163800  1
  Cu  Cu43  1  0.76861600  0.94404200  0.27246300  1
  Cu  Cu44  1  0.98794900  0.48571400  0.30912900  1
  Cu  Cu45  1  0.92868600  0.27327200  0.76902700  1
  Cu  Cu46  1  0.68163800  0.93595100  0.69143500  1
  Cu  Cu47  1  0.69097700  0.69143500  0.93595100  1
  Cu  Cu48  1  0.02901500  0.76902700  0.27327200  1
  Cu  Cu49  1  0.48571400  0.98794900  0.21720800  1
  Cu  Cu50  1  0.94087100  0.03279200  0.26205100  1
  Cu  Cu51  1  0.21720800  0.30912900  0.48571400  1
  Cu  Cu52  1  0.93595100  0.68163800  0.69097700  1
  Cu  Cu53  1  0.30595800  0.48138400  0.23512100  1
