# generated using pymatgen
data_CuNi2C7
_symmetry_space_group_name_H-M   'P 1'
_cell_length_a   11.16274000
_cell_length_b   8.80460700
_cell_length_c   14.74555701
_cell_angle_alpha   62.89615627
_cell_angle_beta   90.00000000
_cell_angle_gamma   90.00000000
_symmetry_Int_Tables_number   1
_chemical_formula_structural   CuNi2C7
_chemical_formula_sum   'Cu4 Ni8 C28'
_cell_volume   1290.09262961
_cell_formula_units_Z   4
loop_
 _symmetry_equiv_pos_site_id
 _symmetry_equiv_pos_as_xyz
  1  'x, y, z'
loop_
 _atom_site_type_symbol
 _atom_site_label
 _atom_site_symmetry_multiplicity
 _atom_site_fract_x
 _atom_site_fract_y
 _atom_site_fract_z
 _atom_site_occupancy
  Ni  Ni0  1  0.20574300  0.76624300  0.46899600  1
  Ni  Ni1  1  0.28334000  0.36589000  0.79625500  1
  Ni  Ni2  1  0.78334000  0.63411000  0.70374500  1
  Ni  Ni3  1  0.29425700  0.76624300  0.96899600  1
  Ni  Ni4  1  0.70574300  0.23375700  0.03100400  1
  Ni  Ni5  1  0.21666000  0.36589000  0.29625500  1
  Ni  Ni6  1  0.71666000  0.63411000  0.20374500  1
  Ni  Ni7  1  0.79425700  0.23375700  0.53100400  1
  Cu  Cu8  1  0.58908300  0.95403800  0.36833100  1
  Cu  Cu9  1  0.91091700  0.95403800  0.86833100  1
  Cu  Cu10  1  0.08908300  0.04596200  0.13166900  1
  Cu  Cu11  1  0.41091700  0.04596200  0.63166900  1
  C  C12  1  0.55731600  0.93354500  0.19121800  1
  C  C13  1  0.86628100  0.94130300  0.19275900  1
  C  C14  1  0.19941800  0.74872100  0.26014300  1
  C  C15  1  0.46737000  0.78878500  0.55051800  1
  C  C16  1  0.94268400  0.93354500  0.69121800  1
  C  C17  1  0.05482500  0.54662300  0.65378400  1
  C  C18  1  0.78900600  0.92416100  0.47666000  1
  C  C19  1  0.34121200  0.37720700  0.58044400  1
  C  C20  1  0.63371900  0.94130300  0.69275900  1
  C  C21  1  0.30058200  0.74872100  0.76014300  1
  C  C22  1  0.84121200  0.62279300  0.91955600  1
  C  C23  1  0.28900600  0.07583900  0.02334000  1
  C  C24  1  0.55482500  0.45337700  0.84621600  1
  C  C25  1  0.03263000  0.78878500  0.05051800  1
  C  C26  1  0.96737000  0.21121500  0.94948200  1
  C  C27  1  0.44517500  0.54662300  0.15378400  1
  C  C28  1  0.71099400  0.92416100  0.97666000  1
  C  C29  1  0.15878800  0.37720700  0.08044400  1
  C  C30  1  0.69941800  0.25127900  0.23985700  1
  C  C31  1  0.36628100  0.05869700  0.30724100  1
  C  C32  1  0.65878800  0.62279300  0.41955600  1
  C  C33  1  0.21099400  0.07583900  0.52334000  1
  C  C34  1  0.94517500  0.45337700  0.34621600  1
  C  C35  1  0.05731600  0.06645500  0.30878200  1
  C  C36  1  0.53263000  0.21121500  0.44948200  1
  C  C37  1  0.80058200  0.25127900  0.73985700  1
  C  C38  1  0.13371900  0.05869700  0.80724100  1
  C  C39  1  0.44268400  0.06645500  0.80878200  1
