# generated using pymatgen
data_Cu17Ni4C33
_symmetry_space_group_name_H-M   'P 1'
_cell_length_a   10.82936463
_cell_length_b   10.82936463
_cell_length_c   19.55807307
_cell_angle_alpha   87.65223538
_cell_angle_beta   87.65223538
_cell_angle_gamma   27.85257669
_symmetry_Int_Tables_number   1
_chemical_formula_structural   Cu17Ni4C33
_chemical_formula_sum   'Cu34 Ni8 C66'
_cell_volume   1070.64625293
_cell_formula_units_Z   2
loop_
 _symmetry_equiv_pos_site_id
 _symmetry_equiv_pos_as_xyz
  1  'x, y, z'
loop_
 _atom_site_type_symbol
 _atom_site_label
 _atom_site_symmetry_multiplicity
 _atom_site_fract_x
 _atom_site_fract_y
 _atom_site_fract_z
 _atom_site_occupancy
  C  C0  1  0.00000000  0.50000000  0.00000000  1
  C  C1  1  0.50000000  0.00000000  0.50000000  1
  C  C2  1  0.00000000  0.00000000  0.00000000  1
  C  C3  1  0.00000000  0.00000000  0.50000000  1
  C  C4  1  0.23134000  0.67763300  0.17361000  1
  C  C5  1  0.32236700  0.76866000  0.32639000  1
  C  C6  1  0.76866000  0.32236700  0.82639000  1
  C  C7  1  0.67763300  0.23134000  0.67361000  1
  C  C8  1  0.92980900  0.85653500  0.41672400  1
  C  C9  1  0.14346500  0.07019100  0.08327600  1
  C  C10  1  0.07019100  0.14346500  0.58327600  1
  C  C11  1  0.85653500  0.92980900  0.91672400  1
  Ni  Ni12  1  0.36939800  0.42101800  0.02495900  1
  Ni  Ni13  1  0.57898200  0.63060200  0.47504100  1
  Ni  Ni14  1  0.63060200  0.57898200  0.97504100  1
  Ni  Ni15  1  0.42101800  0.36939800  0.52495900  1
  Ni  Ni16  1  0.64056400  0.54506900  0.18047800  1
  Ni  Ni17  1  0.45493100  0.35943600  0.31952200  1
  Ni  Ni18  1  0.35943600  0.45493100  0.81952200  1
  Ni  Ni19  1  0.54506900  0.64056400  0.68047800  1
  Cu  Cu20  1  0.99566900  0.61352400  0.48821100  1
  Cu  Cu21  1  0.38647600  0.00433100  0.01178900  1
  Cu  Cu22  1  0.00433100  0.38647600  0.51178900  1
  Cu  Cu23  1  0.61352400  0.99566900  0.98821100  1
  Cu  Cu24  1  0.85800800  0.13718800  0.37388900  1
  Cu  Cu25  1  0.86281200  0.14199200  0.12611100  1
  Cu  Cu26  1  0.14199200  0.86281200  0.62611100  1
  Cu  Cu27  1  0.13718800  0.85800800  0.87388900  1
  Cu  Cu28  1  0.94204300  0.57628800  0.24971500  1
  Cu  Cu29  1  0.42371200  0.05795700  0.25028500  1
  Cu  Cu30  1  0.05795700  0.42371200  0.75028500  1
  Cu  Cu31  1  0.57628800  0.94204300  0.74971500  1
  Cu  Cu32  1  0.19187300  0.43824900  0.23337600  1
  Cu  Cu33  1  0.56175100  0.80812700  0.26662400  1
  Cu  Cu34  1  0.80812700  0.56175100  0.76662400  1
  Cu  Cu35  1  0.43824900  0.19187300  0.73337600  1
  Cu  Cu36  1  0.70668600  0.72186900  0.11310400  1
  Cu  Cu37  1  0.27813100  0.29331400  0.38689600  1
  Cu  Cu38  1  0.29331400  0.27813100  0.88689600  1
  Cu  Cu39  1  0.72186900  0.70668600  0.61310400  1
  Cu  Cu40  1  0.97217700  0.54325500  0.14083300  1
  Cu  Cu41  1  0.45674500  0.02782300  0.35916700  1
  Cu  Cu42  1  0.02782300  0.45674500  0.85916700  1
  Cu  Cu43  1  0.54325500  0.97217700  0.64083300  1
  Cu  Cu44  1  0.69365000  0.08337100  0.20126000  1
  Cu  Cu45  1  0.91662900  0.30635000  0.29874000  1
  Cu  Cu46  1  0.30635000  0.91662900  0.79874000  1
  Cu  Cu47  1  0.08337100  0.69365000  0.70126000  1
  Cu  Cu48  1  0.82416900  0.87882500  0.14715100  1
  Cu  Cu49  1  0.12117500  0.17583100  0.35284900  1
  Cu  Cu50  1  0.17583100  0.12117500  0.85284900  1
  Cu  Cu51  1  0.87882500  0.82416900  0.64715100  1
  Cu  Cu52  1  0.92298400  0.07701600  0.25000000  1
  Cu  Cu53  1  0.07701600  0.92298400  0.75000000  1
  C  C54  1  0.31030600  0.33499700  0.01339100  1
  C  C55  1  0.66500300  0.68969400  0.48660900  1
  C  C56  1  0.68969400  0.66500300  0.98660900  1
  C  C57  1  0.33499700  0.31030600  0.51339100  1
  C  C58  1  0.82126200  0.32778200  0.01892100  1
  C  C59  1  0.67221800  0.17873800  0.48107900  1
  C  C60  1  0.17873800  0.67221800  0.98107900  1
  C  C61  1  0.32778200  0.82126200  0.51892100  1
  C  C62  1  0.80966100  0.34177400  0.49973800  1
  C  C63  1  0.65822600  0.19033900  0.00026200  1
  C  C64  1  0.19033900  0.65822600  0.50026200  1
  C  C65  1  0.34177400  0.80966100  0.99973800  1
  C  C66  1  0.33842700  0.47419000  0.10100200  1
  C  C67  1  0.52581000  0.66157300  0.39899800  1
  C  C68  1  0.66157300  0.52581000  0.89899800  1
  C  C69  1  0.47419000  0.33842700  0.60100200  1
  C  C70  1  0.57315800  0.46733600  0.16756400  1
  C  C71  1  0.53266400  0.42684200  0.33243600  1
  C  C72  1  0.42684200  0.53266400  0.83243600  1
  C  C73  1  0.46733600  0.57315800  0.66756400  1
  C  C74  1  0.39690000  0.39779200  0.24162300  1
  C  C75  1  0.60220800  0.60310000  0.25837700  1
  C  C76  1  0.60310000  0.60220800  0.75837700  1
  C  C77  1  0.39779200  0.39690000  0.74162300  1
  C  C78  1  0.93354700  0.31010800  0.16150400  1
  C  C79  1  0.68989200  0.06645300  0.33849600  1
  C  C80  1  0.06645300  0.68989200  0.83849600  1
  C  C81  1  0.31010800  0.93354700  0.66150400  1
  C  C82  1  0.21306400  0.52862500  0.36319500  1
  C  C83  1  0.47137500  0.78693600  0.13680500  1
  C  C84  1  0.78693600  0.47137500  0.63680500  1
  C  C85  1  0.52862500  0.21306400  0.86319500  1
  C  C86  1  0.03075100  0.95407000  0.39180100  1
  C  C87  1  0.04593000  0.96924900  0.10819900  1
  C  C88  1  0.96924900  0.04593000  0.60819900  1
  C  C89  1  0.95407000  0.03075100  0.89180100  1
  C  C90  1  0.83198400  0.78368000  0.46374400  1
  C  C91  1  0.21632000  0.16801600  0.03625600  1
  C  C92  1  0.16801600  0.21632000  0.53625600  1
  C  C93  1  0.78368000  0.83198400  0.96374400  1
  C  C94  1  0.11091400  0.88908600  0.25000000  1
  C  C95  1  0.88908600  0.11091400  0.75000000  1
  C  C96  1  0.09481200  0.13587400  0.31978500  1
  C  C97  1  0.86412600  0.90518800  0.18021500  1
  C  C98  1  0.90518800  0.86412600  0.68021500  1
  C  C99  1  0.13587400  0.09481200  0.81978500  1
  C  C100  1  0.84395500  0.66371800  0.10202200  1
  C  C101  1  0.33628200  0.15604500  0.39797800  1
  C  C102  1  0.15604500  0.33628200  0.89797800  1
  C  C103  1  0.66371800  0.84395500  0.60202200  1
  C  C104  1  0.11629600  0.42257400  0.22583400  1
  C  C105  1  0.57742600  0.88370400  0.27416600  1
  C  C106  1  0.88370400  0.57742600  0.77416600  1
  C  C107  1  0.42257400  0.11629600  0.72583400  1
