# generated using pymatgen
data_Cu3NiC5
_symmetry_space_group_name_H-M   'P 1'
_cell_length_a   7.97227600
_cell_length_b   9.05008000
_cell_length_c   10.21663700
_cell_angle_alpha   90.00000000
_cell_angle_beta   90.00000000
_cell_angle_gamma   90.00000000
_symmetry_Int_Tables_number   1
_chemical_formula_structural   Cu3NiC5
_chemical_formula_sum   'Cu24 Ni8 C40'
_cell_volume   737.12765809
_cell_formula_units_Z   8
loop_
 _symmetry_equiv_pos_site_id
 _symmetry_equiv_pos_as_xyz
  1  'x, y, z'
loop_
 _atom_site_type_symbol
 _atom_site_label
 _atom_site_symmetry_multiplicity
 _atom_site_fract_x
 _atom_site_fract_y
 _atom_site_fract_z
 _atom_site_occupancy
  C  C0  1  0.87812800  0.59244300  0.07856000  1
  C  C1  1  0.12187200  0.40755700  0.57856000  1
  C  C2  1  0.87812800  0.90755700  0.57856000  1
  C  C3  1  0.12187200  0.09244300  0.07856000  1
  C  C4  1  0.12599500  0.40576600  0.93692200  1
  C  C5  1  0.87400500  0.59423400  0.43692200  1
  C  C6  1  0.12599500  0.09423400  0.43692200  1
  C  C7  1  0.87400500  0.90576600  0.93692200  1
  Ni  Ni8  1  0.23610300  0.74619500  0.97617200  1
  Ni  Ni9  1  0.76389700  0.25380500  0.47617200  1
  Ni  Ni10  1  0.23610300  0.75380500  0.47617200  1
  Ni  Ni11  1  0.76389700  0.24619500  0.97617200  1
  Ni  Ni12  1  0.86598800  0.59327300  0.75603600  1
  Ni  Ni13  1  0.13401200  0.40672700  0.25603600  1
  Ni  Ni14  1  0.86598800  0.90672700  0.25603600  1
  Ni  Ni15  1  0.13401200  0.09327300  0.75603600  1
  Cu  Cu16  1  0.26346300  0.72075400  0.84197800  1
  Cu  Cu17  1  0.73653700  0.27924600  0.34197800  1
  Cu  Cu18  1  0.26346300  0.77924600  0.34197800  1
  Cu  Cu19  1  0.73653700  0.22075400  0.84197800  1
  Cu  Cu20  1  0.73349800  0.49174800  0.75405100  1
  Cu  Cu21  1  0.26650200  0.50825200  0.25405100  1
  Cu  Cu22  1  0.73349800  0.00825200  0.25405100  1
  Cu  Cu23  1  0.26650200  0.99174800  0.75405100  1
  Cu  Cu24  1  0.53644400  0.62491300  0.09443800  1
  Cu  Cu25  1  0.46355600  0.37508700  0.59443800  1
  Cu  Cu26  1  0.53644400  0.87508700  0.59443800  1
  Cu  Cu27  1  0.46355600  0.12491300  0.09443800  1
  Cu  Cu28  1  0.59270000  0.45189500  0.10291600  1
  Cu  Cu29  1  0.40730000  0.54810500  0.60291600  1
  Cu  Cu30  1  0.59270000  0.04810500  0.60291600  1
  Cu  Cu31  1  0.40730000  0.95189500  0.10291600  1
  Cu  Cu32  1  0.44928500  0.36058200  0.93592300  1
  Cu  Cu33  1  0.55071500  0.63941800  0.43592300  1
  Cu  Cu34  1  0.44928500  0.13941800  0.43592300  1
  Cu  Cu35  1  0.55071500  0.86058200  0.93592300  1
  Cu  Cu36  1  0.60711600  0.56290400  0.29882000  1
  Cu  Cu37  1  0.39288400  0.43709600  0.79882000  1
  Cu  Cu38  1  0.60711600  0.93709600  0.79882000  1
  Cu  Cu39  1  0.39288400  0.06290400  0.29882000  1
  C  C40  1  0.61886200  0.55401100  0.13346400  1
  C  C41  1  0.38113800  0.44598900  0.63346400  1
  C  C42  1  0.61886200  0.94598900  0.63346400  1
  C  C43  1  0.38113800  0.05401100  0.13346400  1
  C  C44  1  0.37653500  0.43655500  0.89559100  1
  C  C45  1  0.62346500  0.56344500  0.39559100  1
  C  C46  1  0.37653500  0.06344500  0.39559100  1
  C  C47  1  0.62346500  0.93655500  0.89559100  1
  C  C48  1  0.13657300  0.61213700  0.02949200  1
  C  C49  1  0.86342700  0.38786300  0.52949200  1
  C  C50  1  0.13657300  0.88786300  0.52949200  1
  C  C51  1  0.86342700  0.11213700  0.02949200  1
  C  C52  1  0.40664900  0.76930800  0.04280900  1
  C  C53  1  0.59335100  0.23069200  0.54280900  1
  C  C54  1  0.40664900  0.73069200  0.54280900  1
  C  C55  1  0.59335100  0.26930800  0.04280900  1
  C  C56  1  0.87155900  0.38880100  0.98280400  1
  C  C57  1  0.12844100  0.61119900  0.48280400  1
  C  C58  1  0.87155900  0.11119900  0.48280400  1
  C  C59  1  0.12844100  0.88880100  0.98280400  1
  C  C60  1  0.84567100  0.68555100  0.88221300  1
  C  C61  1  0.15432900  0.31444900  0.38221300  1
  C  C62  1  0.84567100  0.81444900  0.38221300  1
  C  C63  1  0.15432900  0.18555100  0.88221300  1
  C  C64  1  0.84262500  0.81050500  0.13232400  1
  C  C65  1  0.15737500  0.18949500  0.63232400  1
  C  C66  1  0.84262500  0.68949500  0.63232400  1
  C  C67  1  0.15737500  0.31050500  0.13232400  1
  C  C68  1  0.96658000  0.49527400  0.25474700  1
  C  C69  1  0.03342000  0.50472600  0.75474700  1
  C  C70  1  0.96658000  0.00472600  0.75474700  1
  C  C71  1  0.03342000  0.99527400  0.25474700  1
