# generated using pymatgen
data_CuNi2C7
_symmetry_space_group_name_H-M   'P 1'
_cell_length_a   5.34327700
_cell_length_b   12.32280669
_cell_length_c   9.30561000
_cell_angle_alpha   67.81633998
_cell_angle_beta   90.00000000
_cell_angle_gamma   77.47859434
_symmetry_Int_Tables_number   1
_chemical_formula_structural   CuNi2C7
_chemical_formula_sum   'Cu4 Ni8 C28'
_cell_volume   551.59507525
_cell_formula_units_Z   4
loop_
 _symmetry_equiv_pos_site_id
 _symmetry_equiv_pos_as_xyz
  1  'x, y, z'
loop_
 _atom_site_type_symbol
 _atom_site_label
 _atom_site_symmetry_multiplicity
 _atom_site_fract_x
 _atom_site_fract_y
 _atom_site_fract_z
 _atom_site_occupancy
  C  C0  1  0.12500000  0.75000000  0.62500000  1
  C  C1  1  0.87500000  0.25000000  0.37500000  1
  C  C2  1  0.62500000  0.75000000  0.12500000  1
  C  C3  1  0.37500000  0.25000000  0.87500000  1
  Ni  Ni4  1  0.95848200  0.58303600  0.45848200  1
  Ni  Ni5  1  0.70848200  0.08303600  0.20848200  1
  Ni  Ni6  1  0.45848200  0.58303600  0.95848200  1
  Ni  Ni7  1  0.20848200  0.08303600  0.70848200  1
  Ni  Ni8  1  0.29151800  0.91696400  0.29151800  1
  Ni  Ni9  1  0.04151800  0.41696400  0.04151800  1
  Ni  Ni10  1  0.79151800  0.91696400  0.79151800  1
  Ni  Ni11  1  0.54151800  0.41696400  0.54151800  1
  Cu  Cu12  1  0.37500000  0.25000000  0.37500000  1
  Cu  Cu13  1  0.12500000  0.75000000  0.12500000  1
  Cu  Cu14  1  0.62500000  0.75000000  0.62500000  1
  Cu  Cu15  1  0.87500000  0.25000000  0.87500000  1
  C  C16  1  0.75000000  0.50000000  0.48708500  1
  C  C17  1  0.50000000  0.00000000  0.23708500  1
  C  C18  1  0.25000000  0.50000000  0.98708500  1
  C  C19  1  0.00000000  0.00000000  0.73708500  1
  C  C20  1  0.25000000  0.50000000  0.51291500  1
  C  C21  1  0.00000000  0.00000000  0.26291500  1
  C  C22  1  0.75000000  0.50000000  0.01291500  1
  C  C23  1  0.50000000  0.00000000  0.76291500  1
  C  C24  1  0.90271800  0.66641600  0.56137900  1
  C  C25  1  0.65271800  0.16641600  0.31137900  1
  C  C26  1  0.40271800  0.66641600  0.06137900  1
  C  C27  1  0.15271800  0.16641600  0.81137900  1
  C  C28  1  0.34728200  0.83358400  0.47779500  1
  C  C29  1  0.09728200  0.33358400  0.22779500  1
  C  C30  1  0.84728200  0.83358400  0.97779500  1
  C  C31  1  0.59728200  0.33358400  0.72779500  1
  C  C32  1  0.31913400  0.83358400  0.18862100  1
  C  C33  1  0.06913400  0.33358400  0.93862100  1
  C  C34  1  0.81913400  0.83358400  0.68862100  1
  C  C35  1  0.56913400  0.33358400  0.43862100  1
  C  C36  1  0.93086600  0.66641600  0.27220500  1
  C  C37  1  0.68086600  0.16641600  0.02220500  1
  C  C38  1  0.43086600  0.66641600  0.77220500  1
  C  C39  1  0.18086600  0.16641600  0.52220500  1
