# generated using pymatgen
data_Cu3NiC2
_symmetry_space_group_name_H-M   'P 1'
_cell_length_a   7.41603922
_cell_length_b   7.41603922
_cell_length_c   6.95695500
_cell_angle_alpha   90.00000000
_cell_angle_beta   90.00000000
_cell_angle_gamma   130.12910734
_symmetry_Int_Tables_number   1
_chemical_formula_structural   Cu3NiC2
_chemical_formula_sum   'Cu12 Ni4 C8'
_cell_volume   292.54599626
_cell_formula_units_Z   4
loop_
 _symmetry_equiv_pos_site_id
 _symmetry_equiv_pos_as_xyz
  1  'x, y, z'
loop_
 _atom_site_type_symbol
 _atom_site_label
 _atom_site_symmetry_multiplicity
 _atom_site_fract_x
 _atom_site_fract_y
 _atom_site_fract_z
 _atom_site_occupancy
  C  C0  1  0.22654300  0.22654300  0.00000000  1
  C  C1  1  0.77345700  0.77345700  0.00000000  1
  C  C2  1  0.50000000  0.50000000  0.50000000  1
  C  C3  1  0.00000000  0.00000000  0.50000000  1
  C  C4  1  0.24644900  0.75355100  0.00000000  1
  C  C5  1  0.75355100  0.24644900  0.00000000  1
  C  C6  1  0.50000000  0.00000000  0.50000000  1
  C  C7  1  0.00000000  0.50000000  0.50000000  1
  Ni  Ni8  1  0.09642700  0.90357300  0.00000000  1
  Ni  Ni9  1  0.90357300  0.09642700  0.00000000  1
  Ni  Ni10  1  0.66046700  0.33953300  0.50000000  1
  Ni  Ni11  1  0.33953300  0.66046700  0.50000000  1
  Cu  Cu12  1  0.59434300  0.40565700  0.00000000  1
  Cu  Cu13  1  0.24854000  0.24854000  0.29094300  1
  Cu  Cu14  1  0.75146000  0.75146000  0.29094300  1
  Cu  Cu15  1  0.24854000  0.24854000  0.70905700  1
  Cu  Cu16  1  0.50000000  0.00000000  0.20824100  1
  Cu  Cu17  1  0.00000000  0.50000000  0.20824100  1
  Cu  Cu18  1  0.75146000  0.75146000  0.70905700  1
  Cu  Cu19  1  0.40565700  0.59434300  0.00000000  1
  Cu  Cu20  1  0.14882600  0.85117400  0.50000000  1
  Cu  Cu21  1  0.85117400  0.14882600  0.50000000  1
  Cu  Cu22  1  0.50000000  0.00000000  0.79175900  1
  Cu  Cu23  1  0.00000000  0.50000000  0.79175900  1
