# generated using pymatgen
data_CuNi16C23
_symmetry_space_group_name_H-M   'P 1'
_cell_length_a   10.35504900
_cell_length_b   15.48417800
_cell_length_c   16.45099853
_cell_angle_alpha   81.54726755
_cell_angle_beta   90.00000000
_cell_angle_gamma   90.00000000
_symmetry_Int_Tables_number   1
_chemical_formula_structural   CuNi16C23
_chemical_formula_sum   'Cu4 Ni64 C92'
_cell_volume   2609.09101488
_cell_formula_units_Z   4
loop_
 _symmetry_equiv_pos_site_id
 _symmetry_equiv_pos_as_xyz
  1  'x, y, z'
loop_
 _atom_site_type_symbol
 _atom_site_label
 _atom_site_symmetry_multiplicity
 _atom_site_fract_x
 _atom_site_fract_y
 _atom_site_fract_z
 _atom_site_occupancy
  C  C0  1  0.30086100  0.22128500  0.64039200  1
  C  C1  1  0.19913900  0.72128500  0.14039200  1
  C  C2  1  0.69913900  0.77871500  0.35960800  1
  C  C3  1  0.80086100  0.27871500  0.85960800  1
  C  C4  1  0.30097600  0.13684400  0.57430500  1
  C  C5  1  0.19902400  0.63684400  0.07430500  1
  C  C6  1  0.69902400  0.86315600  0.42569500  1
  C  C7  1  0.80097600  0.36315600  0.92569500  1
  C  C8  1  0.47339000  0.28610400  0.50584900  1
  C  C9  1  0.02661000  0.78610400  0.00584900  1
  C  C10  1  0.52661000  0.71389600  0.49415100  1
  C  C11  1  0.97339000  0.21389600  0.99415100  1
  C  C12  1  0.22892700  0.32108400  0.58822000  1
  C  C13  1  0.27107300  0.82108400  0.08822000  1
  C  C14  1  0.77107300  0.67891600  0.41178000  1
  C  C15  1  0.72892700  0.17891600  0.91178000  1
  C  C16  1  0.33049800  0.18920000  0.38975900  1
  C  C17  1  0.16950200  0.68920000  0.88975900  1
  C  C18  1  0.66950200  0.81080000  0.61024100  1
  C  C19  1  0.83049800  0.31080000  0.11024100  1
  C  C20  1  0.08861300  0.22066100  0.47902200  1
  C  C21  1  0.41138700  0.72066100  0.97902200  1
  C  C22  1  0.91138700  0.77933900  0.52097800  1
  C  C23  1  0.58861300  0.27933900  0.02097800  1
  C  C24  1  0.27186900  0.36436800  0.40549900  1
  C  C25  1  0.22813100  0.86436800  0.90549900  1
  C  C26  1  0.72813100  0.63563200  0.59450100  1
  C  C27  1  0.77186900  0.13563200  0.09450100  1
  Ni  Ni28  1  0.28231100  0.25122600  0.48953800  1
  Ni  Ni29  1  0.21768900  0.75122600  0.98953800  1
  Ni  Ni30  1  0.71768900  0.74877400  0.51046200  1
  Ni  Ni31  1  0.78231100  0.24877400  0.01046200  1
  Ni  Ni32  1  0.19161500  0.06988600  0.65684600  1
  Ni  Ni33  1  0.30838500  0.56988600  0.15684600  1
  Ni  Ni34  1  0.80838500  0.93011400  0.34315400  1
  Ni  Ni35  1  0.69161500  0.43011400  0.84315400  1
  Ni  Ni36  1  0.31575000  0.03843200  0.51437900  1
  Ni  Ni37  1  0.18425000  0.53843200  0.01437900  1
  Ni  Ni38  1  0.68425000  0.96156800  0.48562100  1
  Ni  Ni39  1  0.81575000  0.46156800  0.98562100  1
  Ni  Ni40  1  0.46576900  0.11318400  0.62733900  1
  Ni  Ni41  1  0.03423100  0.61318400  0.12733900  1
  Ni  Ni42  1  0.53423100  0.88681600  0.37266100  1
  Ni  Ni43  1  0.96576900  0.38681600  0.87266100  1
  Ni  Ni44  1  0.62427300  0.24978900  0.45696900  1
  Ni  Ni45  1  0.87572700  0.74978900  0.95696900  1
  Ni  Ni46  1  0.37572700  0.75021100  0.54303100  1
  Ni  Ni47  1  0.12427300  0.25021100  0.04303100  1
  Ni  Ni48  1  0.58030700  0.32403300  0.58745200  1
  Ni  Ni49  1  0.91969300  0.82403300  0.08745200  1
  Ni  Ni50  1  0.41969300  0.67596700  0.41254800  1
  Ni  Ni51  1  0.08030700  0.17596700  0.91254800  1
  Ni  Ni52  1  0.46062700  0.40262000  0.43005400  1
  Ni  Ni53  1  0.03937300  0.90262000  0.93005400  1
  Ni  Ni54  1  0.53937300  0.59738000  0.56994600  1
  Ni  Ni55  1  0.96062700  0.09738000  0.06994600  1
  Ni  Ni56  1  0.07775900  0.30930900  0.65720500  1
  Ni  Ni57  1  0.42224100  0.80930900  0.15720500  1
  Ni  Ni58  1  0.92224100  0.69069100  0.34279500  1
  Ni  Ni59  1  0.57775900  0.19069100  0.84279500  1
  Ni  Ni60  1  0.18226200  0.43913500  0.54213000  1
  Ni  Ni61  1  0.31773800  0.93913500  0.04213000  1
  Ni  Ni62  1  0.81773800  0.56086500  0.45787000  1
  Ni  Ni63  1  0.68226200  0.06086500  0.95787000  1
  Ni  Ni64  1  0.33473900  0.36453500  0.67013300  1
  Ni  Ni65  1  0.16526100  0.86453500  0.17013300  1
  Ni  Ni66  1  0.66526100  0.63546500  0.32986700  1
  Ni  Ni67  1  0.83473900  0.13546500  0.82986700  1
  Ni  Ni68  1  0.24147300  0.13115800  0.31318000  1
  Ni  Ni69  1  0.25852700  0.63115800  0.81318000  1
  Ni  Ni70  1  0.75852700  0.86884200  0.68682000  1
  Ni  Ni71  1  0.74147300  0.36884200  0.18682000  1
  Ni  Ni72  1  0.48292300  0.14271700  0.35078100  1
  Ni  Ni73  1  0.01707700  0.64271700  0.85078100  1
  Ni  Ni74  1  0.51707700  0.85728300  0.64921900  1
  Ni  Ni75  1  0.98292300  0.35728300  0.14921900  1
  Ni  Ni76  1  0.33666600  0.30325000  0.30910300  1
  Ni  Ni77  1  0.16333400  0.80325000  0.80910300  1
  Ni  Ni78  1  0.66333400  0.69675000  0.69089700  1
  Ni  Ni79  1  0.83666600  0.19675000  0.19089700  1
  Ni  Ni80  1  0.03691100  0.12002400  0.43422900  1
  Ni  Ni81  1  0.46308900  0.62002400  0.93422900  1
  Ni  Ni82  1  0.96308900  0.87997600  0.56577100  1
  Ni  Ni83  1  0.53691100  0.37997600  0.06577100  1
  Ni  Ni84  1  0.94936200  0.19825000  0.55537100  1
  Ni  Ni85  1  0.55063800  0.69825000  0.05537100  1
  Ni  Ni86  1  0.05063800  0.80175000  0.44462900  1
  Ni  Ni87  1  0.44936200  0.30175000  0.94462900  1
  Ni  Ni88  1  0.99784900  0.30445300  0.40217200  1
  Ni  Ni89  1  0.50215100  0.80445300  0.90217200  1
  Ni  Ni90  1  0.00215100  0.69554700  0.59782800  1
  Ni  Ni91  1  0.49784900  0.19554700  0.09782800  1
  Cu  Cu92  1  0.19859800  0.45995900  0.35019000  1
  Cu  Cu93  1  0.30140200  0.95995900  0.85019000  1
  Cu  Cu94  1  0.80140200  0.54004100  0.64981000  1
  Cu  Cu95  1  0.69859800  0.04004100  0.14981000  1
  C  C96  1  0.12755000  0.03207000  0.70741000  1
  C  C97  1  0.37245000  0.53207000  0.20741000  1
  C  C98  1  0.87245000  0.96793000  0.29259000  1
  C  C99  1  0.62755000  0.46793000  0.79259000  1
  C  C100  1  0.32564400  0.97067900  0.49210200  1
  C  C101  1  0.17435600  0.47067900  0.99210200  1
  C  C102  1  0.67435600  0.02932100  0.50789800  1
  C  C103  1  0.82564400  0.52932100  0.00789800  1
  C  C104  1  0.55897800  0.09135100  0.66364800  1
  C  C105  1  0.94102200  0.59135100  0.16364800  1
  C  C106  1  0.44102200  0.90864900  0.33635200  1
  C  C107  1  0.05897800  0.40864900  0.83635200  1
  C  C108  1  0.71979300  0.23002100  0.42733600  1
  C  C109  1  0.78020700  0.73002100  0.92733600  1
  C  C110  1  0.28020700  0.76997900  0.57266400  1
  C  C111  1  0.21979300  0.26997900  0.07266400  1
  C  C112  1  0.64808200  0.34551200  0.63706000  1
  C  C113  1  0.85191800  0.84551200  0.13706000  1
  C  C114  1  0.35191800  0.65448800  0.36294000  1
  C  C115  1  0.14808200  0.15448800  0.86294000  1
  C  C116  1  0.52452000  0.46514000  0.40856100  1
  C  C117  1  0.97548000  0.96514000  0.90856100  1
  C  C118  1  0.47548000  0.53486000  0.59143900  1
  C  C119  1  0.02452000  0.03486000  0.09143900  1
  C  C120  1  0.99000200  0.30448600  0.70120300  1
  C  C121  1  0.50999800  0.80448600  0.20120300  1
  C  C122  1  0.00999800  0.69551400  0.29879700  1
  C  C123  1  0.49000200  0.19551400  0.79879700  1
  C  C124  1  0.15088200  0.51203300  0.52818700  1
  C  C125  1  0.34911800  0.01203300  0.02818700  1
  C  C126  1  0.84911800  0.48796700  0.47181300  1
  C  C127  1  0.65088200  0.98796700  0.97181300  1
  C  C128  1  0.39095500  0.38850600  0.72313100  1
  C  C129  1  0.10904500  0.88850600  0.22313100  1
  C  C130  1  0.60904500  0.61149400  0.27686900  1
  C  C131  1  0.89095500  0.11149400  0.77686900  1
  C  C132  1  0.18813400  0.09859600  0.26360800  1
  C  C133  1  0.31186600  0.59859600  0.76360800  1
  C  C134  1  0.81186600  0.90140400  0.73639200  1
  C  C135  1  0.68813400  0.40140400  0.23639200  1
  C  C136  1  0.57401200  0.11234100  0.32464600  1
  C  C137  1  0.92598800  0.61234100  0.82464600  1
  C  C138  1  0.42598800  0.88765900  0.67535400  1
  C  C139  1  0.07401200  0.38765900  0.17535400  1
  C  C140  1  0.36370900  0.32639000  0.23943600  1
  C  C141  1  0.13629100  0.82639000  0.73943600  1
  C  C142  1  0.63629100  0.67361000  0.76056400  1
  C  C143  1  0.86370900  0.17361000  0.26056400  1
  C  C144  1  0.99816800  0.05642700  0.41338500  1
  C  C145  1  0.50183200  0.55642700  0.91338500  1
  C  C146  1  0.00183200  0.94357300  0.58661500  1
  C  C147  1  0.49816800  0.44357300  0.08661500  1
  C  C148  1  0.86123300  0.18102100  0.59809700  1
  C  C149  1  0.63876700  0.68102100  0.09809700  1
  C  C150  1  0.13876700  0.81897900  0.40190300  1
  C  C151  1  0.36123300  0.31897900  0.90190300  1
  C  C152  1  0.93315800  0.34885100  0.35587200  1
  C  C153  1  0.56684200  0.84885100  0.85587200  1
  C  C154  1  0.06684200  0.65114900  0.64412800  1
  C  C155  1  0.43315800  0.15114900  0.14412800  1
  C  C156  1  0.12894900  0.51678400  0.32240800  1
  C  C157  1  0.37105100  0.01678400  0.82240800  1
  C  C158  1  0.87105100  0.48321600  0.67759200  1
  C  C159  1  0.62894900  0.98321600  0.17759200  1
