# generated using pymatgen
data_Cu8NiC7
_symmetry_space_group_name_H-M   'P 1'
_cell_length_a   7.25413000
_cell_length_b   8.93718200
_cell_length_c   10.89965588
_cell_angle_alpha   88.37918725
_cell_angle_beta   90.00000000
_cell_angle_gamma   90.00000000
_symmetry_Int_Tables_number   1
_chemical_formula_structural   Cu8NiC7
_chemical_formula_sum   'Cu32 Ni4 C28'
_cell_volume   706.35810056
_cell_formula_units_Z   4
loop_
 _symmetry_equiv_pos_site_id
 _symmetry_equiv_pos_as_xyz
  1  'x, y, z'
loop_
 _atom_site_type_symbol
 _atom_site_label
 _atom_site_symmetry_multiplicity
 _atom_site_fract_x
 _atom_site_fract_y
 _atom_site_fract_z
 _atom_site_occupancy
  C  C0  1  0.32908700  0.94476300  0.85037300  1
  C  C1  1  0.17091300  0.94476300  0.35037300  1
  C  C2  1  0.82908700  0.05523700  0.64962700  1
  C  C3  1  0.67091300  0.05523700  0.14962700  1
  C  C4  1  0.59409400  0.67247500  0.64806500  1
  C  C5  1  0.90590600  0.67247500  0.14806500  1
  C  C6  1  0.69828400  0.54850000  0.74344600  1
  C  C7  1  0.74821800  0.55047200  0.59260300  1
  C  C8  1  0.80171600  0.54850000  0.24344600  1
  C  C9  1  0.75178200  0.55047200  0.09260300  1
  C  C10  1  0.04151600  0.51159000  0.85726600  1
  C  C11  1  0.54151600  0.48841000  0.64273400  1
  C  C12  1  0.45848400  0.51159000  0.35726600  1
  C  C13  1  0.95848400  0.48841000  0.14273400  1
  C  C14  1  0.24821800  0.44952800  0.90739700  1
  C  C15  1  0.19828400  0.45150000  0.75655400  1
  C  C16  1  0.25178200  0.44952800  0.40739700  1
  C  C17  1  0.30171600  0.45150000  0.25655400  1
  C  C18  1  0.09409400  0.32752500  0.85193500  1
  C  C19  1  0.40590600  0.32752500  0.35193500  1
  C  C20  1  0.83076400  0.82438200  0.88743100  1
  C  C21  1  0.66923600  0.82438200  0.38743100  1
  C  C22  1  0.16249200  0.73389800  0.58694600  1
  C  C23  1  0.33750800  0.73389800  0.08694600  1
  C  C24  1  0.66249200  0.26610200  0.91305400  1
  C  C25  1  0.83750800  0.26610200  0.41305400  1
  C  C26  1  0.33076400  0.17561800  0.61256900  1
  C  C27  1  0.16923600  0.17561800  0.11256900  1
  Ni  Ni28  1  0.64561100  0.56529700  0.65629300  1
  Ni  Ni29  1  0.85438900  0.56529700  0.15629300  1
  Ni  Ni30  1  0.14561100  0.43470300  0.84370700  1
  Ni  Ni31  1  0.35438900  0.43470300  0.34370700  1
  Cu  Cu32  1  0.98659000  0.90139300  0.81798400  1
  Cu  Cu33  1  0.51341000  0.90139300  0.31798400  1
  Cu  Cu34  1  0.67620400  0.88340600  0.51272800  1
  Cu  Cu35  1  0.66303200  0.87113800  0.81178300  1
  Cu  Cu36  1  0.05071800  0.87515800  0.55931200  1
  Cu  Cu37  1  0.82379600  0.88340600  0.01272800  1
  Cu  Cu38  1  0.83696800  0.87113800  0.31178300  1
  Cu  Cu39  1  0.44928200  0.87515800  0.05931200  1
  Cu  Cu40  1  0.30337500  0.76641200  0.68330500  1
  Cu  Cu41  1  0.19662500  0.76641200  0.18330500  1
  Cu  Cu42  1  0.24283800  0.70981500  0.96705600  1
  Cu  Cu43  1  0.25716200  0.70981500  0.46705600  1
  Cu  Cu44  1  0.84841600  0.66149000  0.89038300  1
  Cu  Cu45  1  0.65158400  0.66149000  0.39038300  1
  Cu  Cu46  1  0.04464600  0.60928500  0.62512400  1
  Cu  Cu47  1  0.45535400  0.60928500  0.12512400  1
  Cu  Cu48  1  0.54464600  0.39071500  0.87487600  1
  Cu  Cu49  1  0.95535400  0.39071500  0.37487600  1
  Cu  Cu50  1  0.34841600  0.33851000  0.60961700  1
  Cu  Cu51  1  0.15158400  0.33851000  0.10961700  1
  Cu  Cu52  1  0.74283800  0.29018500  0.53294400  1
  Cu  Cu53  1  0.75716200  0.29018500  0.03294400  1
  Cu  Cu54  1  0.80337500  0.23358800  0.81669500  1
  Cu  Cu55  1  0.69662500  0.23358800  0.31669500  1
  Cu  Cu56  1  0.55071800  0.12484200  0.94068800  1
  Cu  Cu57  1  0.16303200  0.12886200  0.68821700  1
  Cu  Cu58  1  0.17620400  0.11659400  0.98727200  1
  Cu  Cu59  1  0.94928200  0.12484200  0.44068800  1
  Cu  Cu60  1  0.33696800  0.12886200  0.18821700  1
  Cu  Cu61  1  0.32379600  0.11659400  0.48727200  1
  Cu  Cu62  1  0.48659000  0.09860700  0.68201600  1
  Cu  Cu63  1  0.01341000  0.09860700  0.18201600  1
