# generated using pymatgen
data_CuNi4C3
_symmetry_space_group_name_H-M   'P 1'
_cell_length_a   6.29672600
_cell_length_b   10.57567800
_cell_length_c   12.70753600
_cell_angle_alpha   90.00000000
_cell_angle_beta   90.00000000
_cell_angle_gamma   90.00000000
_symmetry_Int_Tables_number   1
_chemical_formula_structural   CuNi4C3
_chemical_formula_sum   'Cu8 Ni32 C24'
_cell_volume   846.22210062
_cell_formula_units_Z   8
loop_
 _symmetry_equiv_pos_site_id
 _symmetry_equiv_pos_as_xyz
  1  'x, y, z'
loop_
 _atom_site_type_symbol
 _atom_site_label
 _atom_site_symmetry_multiplicity
 _atom_site_fract_x
 _atom_site_fract_y
 _atom_site_fract_z
 _atom_site_occupancy
  C  C0  1  0.40751000  0.70512800  0.40128500  1
  C  C1  1  0.30569100  0.44797300  0.64100100  1
  C  C2  1  0.19430900  0.44797300  0.14100100  1
  C  C3  1  0.09249000  0.70512800  0.90128500  1
  C  C4  1  0.90751000  0.20512800  0.09871500  1
  C  C5  1  0.80569100  0.94797300  0.85899900  1
  C  C6  1  0.69430900  0.94797300  0.35899900  1
  C  C7  1  0.59249000  0.20512800  0.59871500  1
  C  C8  1  0.00353000  0.24717400  0.88084000  1
  C  C9  1  0.25751800  0.00131600  0.74541700  1
  C  C10  1  0.24248200  0.00131600  0.24541700  1
  C  C11  1  0.49647000  0.24717400  0.38084000  1
  C  C12  1  0.50353000  0.74717400  0.61916000  1
  C  C13  1  0.75751800  0.50131600  0.75458300  1
  C  C14  1  0.74248200  0.50131600  0.25458300  1
  C  C15  1  0.99647000  0.74717400  0.11916000  1
  C  C16  1  0.00168100  0.25181700  0.31257700  1
  C  C17  1  0.16974300  0.98857600  0.99257400  1
  C  C18  1  0.33025700  0.98857600  0.49257400  1
  C  C19  1  0.49831900  0.25181700  0.81257700  1
  C  C20  1  0.50168100  0.75181700  0.18742300  1
  C  C21  1  0.66974300  0.48857600  0.50742600  1
  C  C22  1  0.83025700  0.48857600  0.00742600  1
  C  C23  1  0.99831900  0.75181700  0.68742300  1
  Ni  Ni24  1  0.99932800  0.09667900  0.97926800  1
  Ni  Ni25  1  0.03189100  0.86336300  0.99280600  1
  Ni  Ni26  1  0.03118700  0.86816400  0.76294200  1
  Ni  Ni27  1  0.03593100  0.14260900  0.23075100  1
  Ni  Ni28  1  0.20280600  0.00630600  0.59305300  1
  Ni  Ni29  1  0.19424500  0.72407500  0.62049000  1
  Ni  Ni30  1  0.18960100  0.27103700  0.38664400  1
  Ni  Ni31  1  0.17823700  0.98579300  0.39813900  1
  Ni  Ni32  1  0.32176300  0.98579300  0.89813900  1
  Ni  Ni33  1  0.31039900  0.27103700  0.88664400  1
  Ni  Ni34  1  0.30575500  0.72407500  0.12049000  1
  Ni  Ni35  1  0.29719400  0.00630600  0.09305300  1
  Ni  Ni36  1  0.46406900  0.14260900  0.73075100  1
  Ni  Ni37  1  0.46881300  0.86816400  0.26294200  1
  Ni  Ni38  1  0.46810900  0.86336300  0.49280600  1
  Ni  Ni39  1  0.50067200  0.09667900  0.47926800  1
  Ni  Ni40  1  0.49932800  0.59667900  0.52073200  1
  Ni  Ni41  1  0.53189100  0.36336300  0.50719400  1
  Ni  Ni42  1  0.53118700  0.36816400  0.73705800  1
  Ni  Ni43  1  0.53593100  0.64260900  0.26924900  1
  Ni  Ni44  1  0.70280600  0.50630600  0.90694700  1
  Ni  Ni45  1  0.69424500  0.22407500  0.87951000  1
  Ni  Ni46  1  0.68960100  0.77103700  0.11335600  1
  Ni  Ni47  1  0.67823700  0.48579300  0.10186100  1
  Ni  Ni48  1  0.82176300  0.48579300  0.60186100  1
  Ni  Ni49  1  0.81039900  0.77103700  0.61335600  1
  Ni  Ni50  1  0.80575500  0.22407500  0.37951000  1
  Ni  Ni51  1  0.79719400  0.50630600  0.40694700  1
  Ni  Ni52  1  0.96406900  0.64260900  0.76924900  1
  Ni  Ni53  1  0.96881300  0.36816400  0.23705800  1
  Ni  Ni54  1  0.96810900  0.36336300  0.00719400  1
  Ni  Ni55  1  0.00067200  0.59667900  0.02073200  1
  Cu  Cu56  1  0.02049800  0.12176100  0.76543200  1
  Cu  Cu57  1  0.00332400  0.88199800  0.22792900  1
  Cu  Cu58  1  0.49667600  0.88199800  0.72792900  1
  Cu  Cu59  1  0.47950200  0.12176100  0.26543200  1
  Cu  Cu60  1  0.52049800  0.62176100  0.73456800  1
  Cu  Cu61  1  0.50332400  0.38199800  0.27207100  1
  Cu  Cu62  1  0.99667600  0.38199800  0.77207100  1
  Cu  Cu63  1  0.97950200  0.62176100  0.23456800  1
