# generated using pymatgen
data_Cu9Ni7C48
_symmetry_space_group_name_H-M   'P 1'
_cell_length_a   9.20248458
_cell_length_b   9.20248458
_cell_length_c   11.94856456
_cell_angle_alpha   89.99117909
_cell_angle_beta   89.99117909
_cell_angle_gamma   119.89089806
_symmetry_Int_Tables_number   1
_chemical_formula_structural   Cu9Ni7C48
_chemical_formula_sum   'Cu9 Ni7 C48'
_cell_volume   877.26933751
_cell_formula_units_Z   1
loop_
 _symmetry_equiv_pos_site_id
 _symmetry_equiv_pos_as_xyz
  1  'x, y, z'
loop_
 _atom_site_type_symbol
 _atom_site_label
 _atom_site_symmetry_multiplicity
 _atom_site_fract_x
 _atom_site_fract_y
 _atom_site_fract_z
 _atom_site_occupancy
  C  C0  1  0.59614300  0.59614300  0.24476200  1
  C  C1  1  0.41124900  0.41124900  0.75094500  1
  C  C2  1  0.99963300  0.40624700  0.24501600  1
  C  C3  1  0.99632000  0.59553300  0.75007900  1
  C  C4  1  0.59553300  0.99632000  0.75007900  1
  C  C5  1  0.40624700  0.99963300  0.24501600  1
  Ni  Ni6  1  0.74954700  0.74954700  0.90906000  1
  Ni  Ni7  1  0.76158500  0.76158500  0.60017700  1
  Ni  Ni8  1  0.24208600  0.24208600  0.09306300  1
  Ni  Ni9  1  0.00016600  0.24154500  0.59358700  1
  Ni  Ni10  1  0.75557900  0.99616600  0.08994100  1
  Ni  Ni11  1  0.99616600  0.75557900  0.08994100  1
  Ni  Ni12  1  0.24154500  0.00016600  0.59358700  1
  Cu  Cu13  1  0.24846200  0.24846200  0.40633600  1
  Cu  Cu14  1  0.33548700  0.66536100  0.00557100  1
  Cu  Cu15  1  0.33334900  0.66679900  0.50914700  1
  Cu  Cu16  1  0.99741900  0.24411000  0.90701100  1
  Cu  Cu17  1  0.75251700  0.99823300  0.40492600  1
  Cu  Cu18  1  0.99823300  0.75251700  0.40492600  1
  Cu  Cu19  1  0.66536100  0.33548700  0.00557100  1
  Cu  Cu20  1  0.66679900  0.33334900  0.50914700  1
  Cu  Cu21  1  0.24411000  0.99741900  0.90701100  1
  C  C22  1  0.79856500  0.79856500  0.07261500  1
  C  C23  1  0.79601500  0.79601500  0.42526600  1
  C  C24  1  0.78771800  0.78771800  0.75163300  1
  C  C25  1  0.52069600  0.68816100  0.59982600  1
  C  C26  1  0.51965500  0.68700900  0.90171100  1
  C  C27  1  0.20634900  0.20634900  0.24850200  1
  C  C28  1  0.20140400  0.20140400  0.57551900  1
  C  C29  1  0.20617900  0.20617900  0.92552300  1
  C  C30  1  0.52055100  0.83276400  0.10151600  1
  C  C31  1  0.51523400  0.83109400  0.39880500  1
  C  C32  1  0.31195100  0.47915100  0.10032300  1
  C  C33  1  0.31567700  0.48477200  0.39878600  1
  C  C34  1  0.16918300  0.48372500  0.89933200  1
  C  C35  1  0.16656300  0.47894200  0.59965300  1
  C  C36  1  0.31220500  0.83351700  0.60006900  1
  C  C37  1  0.31647700  0.83178500  0.89735000  1
  C  C38  1  0.00143100  0.20140300  0.07552400  1
  C  C39  1  0.99977000  0.20507500  0.42597300  1
  C  C40  1  0.99991100  0.20567700  0.74846600  1
  C  C41  1  0.16711400  0.68928300  0.09673000  1
  C  C42  1  0.16864800  0.68458500  0.39945100  1
  C  C43  1  0.80017600  0.99962800  0.57600600  1
  C  C44  1  0.79602600  0.99988300  0.92586100  1
  C  C45  1  0.79321200  0.99919500  0.24762400  1
  C  C46  1  0.83178500  0.31647700  0.89735000  1
  C  C47  1  0.83351700  0.31220500  0.60006900  1
  C  C48  1  0.99919500  0.79321200  0.24762400  1
  C  C49  1  0.99962800  0.80017600  0.57600600  1
  C  C50  1  0.99988300  0.79602600  0.92586100  1
  C  C51  1  0.68928300  0.16711400  0.09673000  1
  C  C52  1  0.68458500  0.16864800  0.39945100  1
  C  C53  1  0.83109400  0.51523400  0.39880500  1
  C  C54  1  0.83276400  0.52055100  0.10151600  1
  C  C55  1  0.68816100  0.52069600  0.59982600  1
  C  C56  1  0.68700900  0.51965500  0.90171100  1
  C  C57  1  0.47894200  0.16656300  0.59965300  1
  C  C58  1  0.48372500  0.16918300  0.89933200  1
  C  C59  1  0.48477200  0.31567700  0.39878600  1
  C  C60  1  0.47915100  0.31195100  0.10032300  1
  C  C61  1  0.20567700  0.99991100  0.74846600  1
  C  C62  1  0.20507500  0.99977000  0.42597300  1
  C  C63  1  0.20140300  0.00143100  0.07552400  1
