# generated using pymatgen
data_Cu4NiC
_symmetry_space_group_name_H-M   'P 1'
_cell_length_a   9.05003500
_cell_length_b   9.32866600
_cell_length_c   13.70708868
_cell_angle_alpha   89.58666440
_cell_angle_beta   90.00000000
_cell_angle_gamma   90.00000000
_symmetry_Int_Tables_number   1
_chemical_formula_structural   Cu4NiC
_chemical_formula_sum   'Cu64 Ni16 C16'
_cell_volume   1157.18747455
_cell_formula_units_Z   16
loop_
 _symmetry_equiv_pos_site_id
 _symmetry_equiv_pos_as_xyz
  1  'x, y, z'
loop_
 _atom_site_type_symbol
 _atom_site_label
 _atom_site_symmetry_multiplicity
 _atom_site_fract_x
 _atom_site_fract_y
 _atom_site_fract_z
 _atom_site_occupancy
  C  C0  1  0.03993300  0.94970100  0.37729100  1
  C  C1  1  0.96006700  0.94970100  0.87729100  1
  C  C2  1  0.53699400  0.55179300  0.37457100  1
  C  C3  1  0.46300600  0.55179300  0.87457100  1
  C  C4  1  0.79890100  0.22912200  0.12744800  1
  C  C5  1  0.20109900  0.22912200  0.62744800  1
  C  C6  1  0.47493900  0.03931700  0.62500700  1
  C  C7  1  0.52506100  0.03931700  0.12500700  1
  C  C8  1  0.14507000  0.85783800  0.12563400  1
  C  C9  1  0.85493000  0.85783800  0.62563400  1
  C  C10  1  0.64273400  0.63800900  0.12634300  1
  C  C11  1  0.35726600  0.63800900  0.62634300  1
  C  C12  1  0.14387200  0.36305900  0.37130700  1
  C  C13  1  0.85612800  0.36305900  0.87130700  1
  C  C14  1  0.64451900  0.13860800  0.37383000  1
  C  C15  1  0.35548100  0.13860800  0.87383000  1
  Ni  Ni16  1  0.18549700  0.92711300  0.72747900  1
  Ni  Ni17  1  0.81450300  0.92711300  0.22747900  1
  Ni  Ni18  1  0.56308800  0.83503200  0.49039900  1
  Ni  Ni19  1  0.43691200  0.83503200  0.99039900  1
  Ni  Ni20  1  0.06387900  0.66100800  0.49268500  1
  Ni  Ni21  1  0.93612100  0.66100800  0.99268500  1
  Ni  Ni22  1  0.31523600  0.57308100  0.22276300  1
  Ni  Ni23  1  0.68476400  0.57308100  0.72276300  1
  Ni  Ni24  1  0.81566300  0.42972900  0.27402600  1
  Ni  Ni25  1  0.18433700  0.42972900  0.77402600  1
  Ni  Ni26  1  0.56057800  0.33388400  0.00985200  1
  Ni  Ni27  1  0.43942200  0.33388400  0.50985200  1
  Ni  Ni28  1  0.06335100  0.16299400  0.00851200  1
  Ni  Ni29  1  0.93664900  0.16299400  0.50851200  1
  Ni  Ni30  1  0.68692200  0.07408800  0.77419900  1
  Ni  Ni31  1  0.31307800  0.07408800  0.27419900  1
  Cu  Cu32  1  0.54493400  0.99358300  0.47920800  1
  Cu  Cu33  1  0.45506600  0.99358300  0.97920800  1
  Cu  Cu34  1  0.25122400  0.98282500  0.34977100  1
  Cu  Cu35  1  0.74877600  0.98282500  0.84977100  1
  Cu  Cu36  1  0.78231700  0.98622500  0.32886300  1
  Cu  Cu37  1  0.21768300  0.98622500  0.82886300  1
  Cu  Cu38  1  0.01914200  0.92809200  0.72442200  1
  Cu  Cu39  1  0.98085800  0.92809200  0.22442200  1
  Cu  Cu40  1  0.52557500  0.80614100  0.08338000  1
  Cu  Cu41  1  0.47442500  0.80614100  0.58338000  1
  Cu  Cu42  1  0.28050700  0.79812900  0.01207100  1
  Cu  Cu43  1  0.71949300  0.79812900  0.51207100  1
  Cu  Cu44  1  0.24240400  0.78114800  0.72339600  1
  Cu  Cu45  1  0.75759600  0.78114800  0.22339600  1
  Cu  Cu46  1  0.51174600  0.75499200  0.40733100  1
  Cu  Cu47  1  0.48825400  0.75499200  0.90733100  1
  Cu  Cu48  1  0.01992200  0.74705200  0.40908300  1
  Cu  Cu49  1  0.98007800  0.74705200  0.90908300  1
  Cu  Cu50  1  0.26131400  0.72274800  0.22222500  1
  Cu  Cu51  1  0.73868600  0.72274800  0.72222500  1
  Cu  Cu52  1  0.22190200  0.69802600  0.51753300  1
  Cu  Cu53  1  0.77809800  0.69802600  0.01753300  1
  Cu  Cu54  1  0.02689300  0.69345000  0.08290900  1
  Cu  Cu55  1  0.97310700  0.69345000  0.58290900  1
  Cu  Cu56  1  0.48564700  0.57816900  0.22516000  1
  Cu  Cu57  1  0.51435300  0.57816900  0.72516000  1
  Cu  Cu58  1  0.71535800  0.51551800  0.82670600  1
  Cu  Cu59  1  0.28464200  0.51551800  0.32670600  1
  Cu  Cu60  1  0.74721100  0.51452500  0.34936700  1
  Cu  Cu61  1  0.25278900  0.51452500  0.84936700  1
  Cu  Cu62  1  0.04858900  0.50587700  0.47670700  1
  Cu  Cu63  1  0.95141100  0.50587700  0.97670700  1
  Cu  Cu64  1  0.54262600  0.49093900  0.01964200  1
  Cu  Cu65  1  0.45737400  0.49093900  0.51964200  1
  Cu  Cu66  1  0.74189800  0.48268700  0.64803000  1
  Cu  Cu67  1  0.25810200  0.48268700  0.14803000  1
  Cu  Cu68  1  0.77853000  0.48370000  0.17144800  1
  Cu  Cu69  1  0.22147000  0.48370000  0.67144800  1
  Cu  Cu70  1  0.97964800  0.43010300  0.27768900  1
  Cu  Cu71  1  0.02035200  0.43010300  0.77768900  1
  Cu  Cu72  1  0.52567800  0.30263700  0.41727300  1
  Cu  Cu73  1  0.47432200  0.30263700  0.91727300  1
  Cu  Cu74  1  0.71957300  0.29697400  0.99034000  1
  Cu  Cu75  1  0.28042700  0.29697400  0.49034000  1
  Cu  Cu76  1  0.76187300  0.27696600  0.27228500  1
  Cu  Cu77  1  0.23812700  0.27696600  0.77228500  1
  Cu  Cu78  1  0.51412600  0.25154900  0.09468900  1
  Cu  Cu79  1  0.48587400  0.25154900  0.59468900  1
  Cu  Cu80  1  0.00781500  0.23778200  0.09289400  1
  Cu  Cu81  1  0.99218500  0.23778200  0.59289400  1
  Cu  Cu82  1  0.74044200  0.22298000  0.77667700  1
  Cu  Cu83  1  0.25955800  0.22298000  0.27667700  1
  Cu  Cu84  1  0.78088900  0.20268700  0.48747300  1
  Cu  Cu85  1  0.21911100  0.20268700  0.98747300  1
  Cu  Cu86  1  0.02695100  0.19409600  0.41621400  1
  Cu  Cu87  1  0.97304900  0.19409600  0.91621400  1
  Cu  Cu88  1  0.51861600  0.07405100  0.77508800  1
  Cu  Cu89  1  0.48138400  0.07405100  0.27508800  1
  Cu  Cu90  1  0.71846900  0.01579200  0.67210800  1
  Cu  Cu91  1  0.28153100  0.01579200  0.17210800  1
  Cu  Cu92  1  0.24938800  0.02175700  0.65201400  1
  Cu  Cu93  1  0.75061200  0.02175700  0.15201400  1
  Cu  Cu94  1  0.04813200  0.00352100  0.01773600  1
  Cu  Cu95  1  0.95186800  0.00352100  0.51773600  1
