# generated using pymatgen
data_CuNiC18
_symmetry_space_group_name_H-M   'P 1'
_cell_length_a   9.86210496
_cell_length_b   9.86210496
_cell_length_c   9.77312377
_cell_angle_alpha   87.11581233
_cell_angle_beta   87.11581233
_cell_angle_gamma   84.37120671
_symmetry_Int_Tables_number   1
_chemical_formula_structural   CuNiC18
_chemical_formula_sum   'Cu4 Ni4 C72'
_cell_volume   943.77799416
_cell_formula_units_Z   4
loop_
 _symmetry_equiv_pos_site_id
 _symmetry_equiv_pos_as_xyz
  1  'x, y, z'
loop_
 _atom_site_type_symbol
 _atom_site_label
 _atom_site_symmetry_multiplicity
 _atom_site_fract_x
 _atom_site_fract_y
 _atom_site_fract_z
 _atom_site_occupancy
  C  C0  1  0.50688700  0.98826000  0.24130900  1
  C  C1  1  0.25401800  0.01156400  0.38754500  1
  C  C2  1  0.56500100  0.78460900  0.46602400  1
  C  C3  1  0.73337500  0.76930100  0.17770100  1
  C  C4  1  0.98843600  0.74598200  0.61245500  1
  C  C5  1  0.74794300  0.63143000  0.80315100  1
  C  C6  1  0.01174000  0.49311300  0.75869100  1
  C  C7  1  0.21539100  0.43499900  0.53397600  1
  C  C8  1  0.92531400  0.29867900  0.97560800  1
  C  C9  1  0.23069900  0.26662500  0.82229900  1
  C  C10  1  0.36857000  0.25205700  0.19684900  1
  C  C11  1  0.70132100  0.07468600  0.02439200  1
  Ni  Ni12  1  0.24323600  0.75676400  0.00000000  1
  Ni  Ni13  1  0.97405700  0.26113500  0.27769700  1
  Ni  Ni14  1  0.75603800  0.24396200  0.50000000  1
  Ni  Ni15  1  0.73886500  0.02594300  0.72230300  1
  Cu  Cu16  1  0.25139000  0.97305000  0.78027300  1
  Cu  Cu17  1  0.02695000  0.74861000  0.21972700  1
  Cu  Cu18  1  0.46973700  0.53026300  0.00000000  1
  Cu  Cu19  1  0.53332000  0.46668000  0.50000000  1
  C  C20  1  0.81605600  0.94588200  0.40613600  1
  C  C21  1  0.94684700  0.82768600  0.90389200  1
  C  C22  1  0.54951200  0.84028500  0.92782400  1
  C  C23  1  0.34095300  0.68051600  0.30143000  1
  C  C24  1  0.31948400  0.65904700  0.69857000  1
  C  C25  1  0.83784600  0.55719600  0.42624400  1
  C  C26  1  0.15971500  0.45048800  0.07217600  1
  C  C27  1  0.68540100  0.34972900  0.80117900  1
  C  C28  1  0.65027100  0.31459900  0.19882100  1
  C  C29  1  0.44280400  0.16215400  0.57375600  1
  C  C30  1  0.05411800  0.18394400  0.59386400  1
  C  C31  1  0.17231400  0.05315300  0.09610800  1
  C  C32  1  0.87100800  0.96893300  0.86954100  1
  C  C33  1  0.82226600  0.90817300  0.56086200  1
  C  C34  1  0.62044200  0.87362200  0.79061200  1
  C  C35  1  0.95380300  0.88855200  0.33823700  1
  C  C36  1  0.69227400  0.89505500  0.34063500  1
  C  C37  1  0.39344200  0.88068100  0.92163600  1
  C  C38  1  0.60444300  0.89979200  0.05411500  1
  C  C39  1  0.15920800  0.89312200  0.12457600  1
  C  C40  1  0.10687800  0.84079200  0.87542400  1
  C  C41  1  0.31211100  0.81526200  0.67239700  1
  C  C42  1  0.91183300  0.79589000  0.05816100  1
  C  C43  1  0.40273000  0.80643100  0.34870800  1
  C  C44  1  0.91491200  0.71373100  0.81367600  1
  C  C45  1  0.57787400  0.67665200  0.94448200  1
  C  C46  1  0.18473800  0.68788900  0.32760300  1
  C  C47  1  0.37533600  0.67126600  0.13806500  1
  C  C48  1  0.87851700  0.63143400  0.28884700  1
  C  C49  1  0.90677700  0.59699800  0.55232700  1
  C  C50  1  0.32873400  0.62466400  0.86193500  1
  C  C51  1  0.45716000  0.60318900  0.63274400  1
  C  C52  1  0.67745500  0.59141200  0.44337400  1
  C  C53  1  0.19356900  0.59727000  0.65129200  1
  C  C54  1  0.11931900  0.60655800  0.07836400  1
  C  C55  1  0.39681100  0.54284000  0.36725600  1
  C  C56  1  0.80511000  0.42549400  0.84080300  1
  C  C57  1  0.58330000  0.45353300  0.13863800  1
  C  C58  1  0.54646700  0.41670000  0.86136200  1
  C  C59  1  0.87401300  0.39995200  0.41016300  1
  C  C60  1  0.67107800  0.37232800  0.63990100  1
  C  C61  1  0.10020800  0.39555800  0.94588500  1
  C  C62  1  0.32334800  0.42212600  0.05551800  1
  C  C63  1  0.12637800  0.37955800  0.20938800  1
  C  C64  1  0.62767200  0.32892200  0.36009900  1
  C  C65  1  0.80184600  0.30166800  0.15149400  1
  C  C66  1  0.40858800  0.32254500  0.55662600  1
  C  C67  1  0.10494500  0.30772600  0.65936500  1
  C  C68  1  0.69833200  0.19815400  0.84850600  1
  C  C69  1  0.89489600  0.18347100  0.62468000  1
  C  C70  1  0.57450600  0.19489000  0.15919700  1
  C  C71  1  0.09182700  0.17773400  0.43913800  1
  C  C72  1  0.60004800  0.12598700  0.58983700  1
  C  C73  1  0.81652900  0.10510400  0.37532000  1
  C  C74  1  0.36856600  0.12148300  0.71115300  1
  C  C75  1  0.20411000  0.08816700  0.94183900  1
  C  C76  1  0.40300200  0.09322300  0.44767300  1
  C  C77  1  0.03106700  0.12899200  0.13045900  1
  C  C78  1  0.28626900  0.08508800  0.18632400  1
  C  C79  1  0.11144800  0.04619700  0.66176300  1
