# generated using pymatgen
data_Cu3Ni3C22
_symmetry_space_group_name_H-M   'P 1'
_cell_length_a   6.06153813
_cell_length_b   6.06153813
_cell_length_c   9.89094971
_cell_angle_alpha   88.92268885
_cell_angle_beta   88.92268885
_cell_angle_gamma   59.85021894
_symmetry_Int_Tables_number   1
_chemical_formula_structural   Cu3Ni3C22
_chemical_formula_sum   'Cu3 Ni3 C22'
_cell_volume   314.17717658
_cell_formula_units_Z   1
loop_
 _symmetry_equiv_pos_site_id
 _symmetry_equiv_pos_as_xyz
  1  'x, y, z'
loop_
 _atom_site_type_symbol
 _atom_site_label
 _atom_site_symmetry_multiplicity
 _atom_site_fract_x
 _atom_site_fract_y
 _atom_site_fract_z
 _atom_site_occupancy
  C  C0  1  0.66449400  0.66449400  0.09072500  1
  C  C1  1  0.99939000  0.99939000  0.01602200  1
  C  C2  1  0.00120700  0.00120700  0.51173000  1
  C  C3  1  0.33371000  0.33371000  0.58910800  1
  Ni  Ni4  1  0.83224700  0.83224700  0.78887400  1
  Ni  Ni5  1  0.17486300  0.65928600  0.29035400  1
  Ni  Ni6  1  0.65928600  0.17486300  0.29035400  1
  Cu  Cu7  1  0.33374500  0.83389500  0.78790700  1
  Cu  Cu8  1  0.83389500  0.33374500  0.78790700  1
  Cu  Cu9  1  0.17328800  0.17328800  0.28454300  1
  C  C10  1  0.66879900  0.66879900  0.51837600  1
  C  C11  1  0.33271700  0.33271700  0.01660400  1
  C  C12  1  0.34985900  0.83143600  0.41318100  1
  C  C13  1  0.52052500  0.52052500  0.65007600  1
  C  C14  1  0.66937500  0.66937500  0.88604700  1
  C  C15  1  0.99551700  0.99551700  0.69632500  1
  C  C16  1  0.00119200  0.00119200  0.20729700  1
  C  C17  1  0.83143600  0.34985900  0.41318100  1
  C  C18  1  0.51619900  0.95867900  0.64835500  1
  C  C19  1  0.95867900  0.51619900  0.64835500  1
  C  C20  1  0.16103400  0.16103400  0.89561200  1
  C  C21  1  0.83014800  0.83014800  0.41447700  1
  C  C22  1  0.03252200  0.47230100  0.15158400  1
  C  C23  1  0.47230100  0.03252200  0.15158400  1
  C  C24  1  0.33081600  0.33081600  0.38956000  1
  C  C25  1  0.16772900  0.67507800  0.90427500  1
  C  C26  1  0.47919600  0.47919600  0.14555100  1
  C  C27  1  0.67507800  0.16772900  0.90427500  1
