# generated using pymatgen
data_Cu(NiC3)2
_symmetry_space_group_name_H-M   'P 1'
_cell_length_a   4.80306100
_cell_length_b   10.37295490
_cell_length_c   9.60607600
_cell_angle_alpha   62.41718790
_cell_angle_beta   90.00011929
_cell_angle_gamma   90.00016334
_symmetry_Int_Tables_number   1
_chemical_formula_structural   Cu(NiC3)2
_chemical_formula_sum   'Cu4 Ni8 C24'
_cell_volume   424.19758812
_cell_formula_units_Z   4
loop_
 _symmetry_equiv_pos_site_id
 _symmetry_equiv_pos_as_xyz
  1  'x, y, z'
loop_
 _atom_site_type_symbol
 _atom_site_label
 _atom_site_symmetry_multiplicity
 _atom_site_fract_x
 _atom_site_fract_y
 _atom_site_fract_z
 _atom_site_occupancy
  Ni  Ni0  1  0.99999100  0.99793400  0.00104000  1
  Ni  Ni1  1  0.99999900  0.99794300  0.50101900  1
  Ni  Ni2  1  0.00001400  0.33540200  0.33229400  1
  Ni  Ni3  1  0.00000500  0.33539300  0.83231500  1
  Ni  Ni4  1  0.49999500  0.83539200  0.83231400  1
  Ni  Ni5  1  0.49998700  0.83540200  0.33229500  1
  Ni  Ni6  1  0.50000900  0.49793400  0.00103900  1
  Ni  Ni7  1  0.50000100  0.49794400  0.50101900  1
  Cu  Cu8  1  0.00000000  0.66666300  0.16666300  1
  Cu  Cu9  1  0.50000000  0.16666300  0.16666300  1
  Cu  Cu10  1  0.00000000  0.66666300  0.66666400  1
  Cu  Cu11  1  0.49999900  0.16666300  0.66666400  1
  C  C12  1  0.19113400  0.16667100  0.01222900  1
  C  C13  1  0.19116300  0.16666900  0.51224700  1
  C  C14  1  0.30886800  0.66667100  0.01223000  1
  C  C15  1  0.30883900  0.66666800  0.51224700  1
  C  C16  1  0.69116100  0.66666700  0.82108500  1
  C  C17  1  0.69113100  0.66666500  0.32110300  1
  C  C18  1  0.80886800  0.16666500  0.32110300  1
  C  C19  1  0.80883700  0.16666800  0.82108500  1
  C  C20  1  0.20188700  0.83984400  0.68101800  1
  C  C21  1  0.20190100  0.83986600  0.18101800  1
  C  C22  1  0.20186600  0.49348800  0.85419100  1
  C  C23  1  0.20189700  0.49346900  0.35421300  1
  C  C24  1  0.29813300  0.99348900  0.85418900  1
  C  C25  1  0.29810100  0.99346900  0.35421200  1
  C  C26  1  0.29809800  0.33986500  0.18101800  1
  C  C27  1  0.29811200  0.33984400  0.68101800  1
  C  C28  1  0.70187900  0.99348900  0.65231800  1
  C  C29  1  0.70189500  0.99346900  0.15231700  1
  C  C30  1  0.70190200  0.33986300  0.97912500  1
  C  C31  1  0.70186800  0.33984400  0.47914600  1
  C  C32  1  0.79810000  0.83986400  0.97912400  1
  C  C33  1  0.79813000  0.83984600  0.47914400  1
  C  C34  1  0.79810600  0.49346800  0.15231700  1
  C  C35  1  0.79812000  0.49348800  0.65231700  1
