# generated using pymatgen
data_Cu(Ni3C8)3
_symmetry_space_group_name_H-M   'P 1'
_cell_length_a   2.93307700
_cell_length_b   5.95307600
_cell_length_c   21.25019833
_cell_angle_alpha   82.03065150
_cell_angle_beta   90.00000000
_cell_angle_gamma   90.00000000
_symmetry_Int_Tables_number   1
_chemical_formula_structural   Cu(Ni3C8)3
_chemical_formula_sum   'Cu1 Ni9 C24'
_cell_volume   367.46268465
_cell_formula_units_Z   1
loop_
 _symmetry_equiv_pos_site_id
 _symmetry_equiv_pos_as_xyz
  1  'x, y, z'
loop_
 _atom_site_type_symbol
 _atom_site_label
 _atom_site_symmetry_multiplicity
 _atom_site_fract_x
 _atom_site_fract_y
 _atom_site_fract_z
 _atom_site_occupancy
  C  C0  1  0.50000000  0.70340600  0.60695000  1
  C  C1  1  0.50000000  0.29659400  0.39305000  1
  C  C2  1  0.00000000  0.69468500  0.09945700  1
  C  C3  1  0.00000000  0.30531500  0.90054300  1
  Ni  Ni4  1  0.50000000  0.62426400  0.79449200  1
  Ni  Ni5  1  0.00000000  0.36449700  0.70236700  1
  Ni  Ni6  1  0.50000000  0.20016900  0.59664800  1
  Ni  Ni7  1  0.00000000  0.00000000  0.50000000  1
  Ni  Ni8  1  0.50000000  0.79983100  0.40335200  1
  Ni  Ni9  1  0.00000000  0.63550300  0.29763300  1
  Ni  Ni10  1  0.50000000  0.37573600  0.20550800  1
  Ni  Ni11  1  0.00000000  0.20901400  0.09601600  1
  Ni  Ni12  1  0.00000000  0.79098600  0.90398400  1
  Cu  Cu13  1  0.50000000  0.00000000  0.00000000  1
  C  C14  1  0.50000000  0.57374900  0.89556000  1
  C  C15  1  0.00000000  0.82933600  0.80305100  1
  C  C16  1  0.00000000  0.39916500  0.79793000  1
  C  C17  1  0.50000000  0.15558700  0.68631500  1
  C  C18  1  0.50000000  0.59035600  0.69948400  1
  C  C19  1  0.00000000  0.97509900  0.59471300  1
  C  C20  1  0.00000000  0.41055800  0.60158500  1
  C  C21  1  0.50000000  0.22413600  0.50667000  1
  C  C22  1  0.50000000  0.77586400  0.49333000  1
  C  C23  1  0.00000000  0.02490100  0.40528700  1
  C  C24  1  0.00000000  0.58944200  0.39841500  1
  C  C25  1  0.50000000  0.84441300  0.31368500  1
  C  C26  1  0.50000000  0.40964400  0.30051600  1
  C  C27  1  0.00000000  0.17066400  0.19694900  1
  C  C28  1  0.00000000  0.60083500  0.20207000  1
  C  C29  1  0.50000000  0.97462500  0.08919300  1
  C  C30  1  0.50000000  0.42625100  0.10444000  1
  C  C31  1  0.00000000  0.20690500  0.99956100  1
  C  C32  1  0.00000000  0.79309500  0.00043900  1
  C  C33  1  0.50000000  0.02537500  0.91080700  1
