# generated using pymatgen
data_Cu(NiC2)5
_symmetry_space_group_name_H-M   'P 1'
_cell_length_a   15.05680300
_cell_length_b   7.28878400
_cell_length_c   7.29863296
_cell_angle_alpha   88.16448036
_cell_angle_beta   90.00000000
_cell_angle_gamma   90.00000000
_symmetry_Int_Tables_number   1
_chemical_formula_structural   Cu(NiC2)5
_chemical_formula_sum   'Cu4 Ni20 C40'
_cell_volume   800.58320857
_cell_formula_units_Z   4
loop_
 _symmetry_equiv_pos_site_id
 _symmetry_equiv_pos_as_xyz
  1  'x, y, z'
loop_
 _atom_site_type_symbol
 _atom_site_label
 _atom_site_symmetry_multiplicity
 _atom_site_fract_x
 _atom_site_fract_y
 _atom_site_fract_z
 _atom_site_occupancy
  Ni  Ni0  1  0.97231600  0.08888500  0.20131500  1
  Ni  Ni1  1  0.52768400  0.58888500  0.20131500  1
  Ni  Ni2  1  0.22186000  0.48073800  0.21958300  1
  Ni  Ni3  1  0.27814000  0.98073800  0.21958300  1
  Ni  Ni4  1  0.49600300  0.27445800  0.24500000  1
  Ni  Ni5  1  0.00399700  0.77445800  0.24500000  1
  Ni  Ni6  1  0.37984800  0.49709800  0.31396400  1
  Ni  Ni7  1  0.12015200  0.99709800  0.31396400  1
  Ni  Ni8  1  0.74194500  0.49783300  0.46760900  1
  Ni  Ni9  1  0.75805500  0.99783300  0.46760900  1
  Ni  Ni10  1  0.24194500  0.00216700  0.53239100  1
  Ni  Ni11  1  0.25805500  0.50216700  0.53239100  1
  Ni  Ni12  1  0.87984800  0.00290200  0.68603600  1
  Ni  Ni13  1  0.62015200  0.50290200  0.68603600  1
  Ni  Ni14  1  0.99600300  0.22554200  0.75500000  1
  Ni  Ni15  1  0.50399700  0.72554200  0.75500000  1
  Ni  Ni16  1  0.72186000  0.01926200  0.78041700  1
  Ni  Ni17  1  0.77814000  0.51926200  0.78041700  1
  Ni  Ni18  1  0.47231600  0.41111500  0.79868500  1
  Ni  Ni19  1  0.02768400  0.91111500  0.79868500  1
  Cu  Cu20  1  0.87500100  0.46750500  0.15432900  1
  Cu  Cu21  1  0.62499900  0.96750500  0.15432900  1
  Cu  Cu22  1  0.37500100  0.03249500  0.84567000  1
  Cu  Cu23  1  0.12499900  0.53249500  0.84567000  1
  C  C24  1  0.15188100  0.46323000  0.09161400  1
  C  C25  1  0.34811900  0.96323000  0.09161400  1
  C  C26  1  0.90643900  0.21640300  0.14219500  1
  C  C27  1  0.59356100  0.71640300  0.14219500  1
  C  C28  1  0.19278900  0.00736100  0.17386100  1
  C  C29  1  0.55170900  0.40716200  0.16974600  1
  C  C30  1  0.30721100  0.50736100  0.17386100  1
  C  C31  1  0.94829100  0.90716200  0.16974600  1
  C  C32  1  0.52111300  0.08647400  0.24019000  1
  C  C33  1  0.97888700  0.58647400  0.24019000  1
  C  C34  1  0.76501400  0.48579600  0.28007500  1
  C  C35  1  0.05071100  0.13456200  0.27263200  1
  C  C36  1  0.73498600  0.98579600  0.28007500  1
  C  C37  1  0.44928900  0.63456200  0.27263200  1
  C  C38  1  0.41669400  0.30756800  0.31821700  1
  C  C39  1  0.08330600  0.80756800  0.31821700  1
  C  C40  1  0.19424700  0.46507700  0.40275100  1
  C  C41  1  0.30575300  0.96507700  0.40275100  1
  C  C42  1  0.65579900  0.47108900  0.50204900  1
  C  C43  1  0.15579900  0.02891100  0.49795100  1
  C  C44  1  0.84420100  0.97108900  0.50204900  1
  C  C45  1  0.34420100  0.52891100  0.49795100  1
  C  C46  1  0.69424700  0.03492300  0.59724900  1
  C  C47  1  0.80575300  0.53492300  0.59724900  1
  C  C48  1  0.91669400  0.19243200  0.68178300  1
  C  C49  1  0.58330600  0.69243200  0.68178300  1
  C  C50  1  0.55071100  0.36543800  0.72736800  1
  C  C51  1  0.26501400  0.01420400  0.71992500  1
  C  C52  1  0.94928900  0.86543800  0.72736800  1
  C  C53  1  0.23498600  0.51420400  0.71992500  1
  C  C54  1  0.02111300  0.41352600  0.75981000  1
  C  C55  1  0.47888700  0.91352600  0.75981000  1
  C  C56  1  0.05170900  0.09283800  0.83025400  1
  C  C57  1  0.69278900  0.49263900  0.82613900  1
  C  C58  1  0.44829100  0.59283800  0.83025400  1
  C  C59  1  0.80721100  0.99263900  0.82613900  1
  C  C60  1  0.40643900  0.28359700  0.85780500  1
  C  C61  1  0.09356100  0.78359700  0.85780500  1
  C  C62  1  0.65188100  0.03677000  0.90838600  1
  C  C63  1  0.84811900  0.53677000  0.90838600  1
