# generated using pymatgen
data_Cu3NiC2
_symmetry_space_group_name_H-M   'P 1'
_cell_length_a   4.74312600
_cell_length_b   5.77716800
_cell_length_c   10.76575993
_cell_angle_alpha   82.65488474
_cell_angle_beta   90.00000000
_cell_angle_gamma   90.00000000
_symmetry_Int_Tables_number   1
_chemical_formula_structural   Cu3NiC2
_chemical_formula_sum   'Cu12 Ni4 C8'
_cell_volume   292.58082684
_cell_formula_units_Z   4
loop_
 _symmetry_equiv_pos_site_id
 _symmetry_equiv_pos_as_xyz
  1  'x, y, z'
loop_
 _atom_site_type_symbol
 _atom_site_label
 _atom_site_symmetry_multiplicity
 _atom_site_fract_x
 _atom_site_fract_y
 _atom_site_fract_z
 _atom_site_occupancy
  C  C0  1  0.50000000  0.00000000  0.50000000  1
  C  C1  1  0.50000000  0.50000000  0.00000000  1
  C  C2  1  0.47562700  0.25632800  0.73250700  1
  C  C3  1  0.52437300  0.74367200  0.26749300  1
  C  C4  1  0.02437300  0.25632800  0.23250700  1
  C  C5  1  0.00000000  0.50000000  0.50000000  1
  C  C6  1  0.97562700  0.74367200  0.76749300  1
  C  C7  1  0.00000000  0.00000000  0.00000000  1
  Ni  Ni8  1  0.80718200  0.72150900  0.92221400  1
  Ni  Ni9  1  0.69281800  0.72150900  0.42221400  1
  Ni  Ni10  1  0.30718200  0.27849100  0.57778600  1
  Ni  Ni11  1  0.19281800  0.27849100  0.07778600  1
  Cu  Cu12  1  0.79414800  0.48286900  0.68586100  1
  Cu  Cu13  1  0.81670700  0.21847000  0.40445800  1
  Cu  Cu14  1  0.78998500  0.98406000  0.18183200  1
  Cu  Cu15  1  0.70585200  0.48286900  0.18586100  1
  Cu  Cu16  1  0.68329300  0.21847000  0.90445800  1
  Cu  Cu17  1  0.71001500  0.98406000  0.68183200  1
  Cu  Cu18  1  0.31670700  0.78153000  0.09554200  1
  Cu  Cu19  1  0.29414800  0.51713100  0.81413900  1
  Cu  Cu20  1  0.28998500  0.01594000  0.31816800  1
  Cu  Cu21  1  0.21001500  0.01594000  0.81816800  1
  Cu  Cu22  1  0.20585200  0.51713100  0.31413900  1
  Cu  Cu23  1  0.18329300  0.78153000  0.59554200  1
