# generated using pymatgen
data_Cu4NiC14
_symmetry_space_group_name_H-M   'P 1'
_cell_length_a   8.51839900
_cell_length_b   11.59362800
_cell_length_c   11.82573392
_cell_angle_alpha   67.66340968
_cell_angle_beta   90.00000000
_cell_angle_gamma   90.00000000
_symmetry_Int_Tables_number   1
_chemical_formula_structural   Cu4NiC14
_chemical_formula_sum   'Cu16 Ni4 C56'
_cell_volume   1080.26865734
_cell_formula_units_Z   4
loop_
 _symmetry_equiv_pos_site_id
 _symmetry_equiv_pos_as_xyz
  1  'x, y, z'
loop_
 _atom_site_type_symbol
 _atom_site_label
 _atom_site_symmetry_multiplicity
 _atom_site_fract_x
 _atom_site_fract_y
 _atom_site_fract_z
 _atom_site_occupancy
  C  C0  1  0.75000000  0.91702700  0.58294500  1
  C  C1  1  0.25000000  0.98270900  0.02675400  1
  C  C2  1  0.75000000  0.43226100  0.93907500  1
  C  C3  1  0.75000000  0.52875100  0.54114300  1
  C  C4  1  0.25000000  0.47124900  0.45885700  1
  C  C5  1  0.25000000  0.56773900  0.06092500  1
  C  C6  1  0.75000000  0.01729100  0.97324600  1
  C  C7  1  0.25000000  0.08297300  0.41705500  1
  Ni  Ni8  1  0.99407000  0.71242100  0.21263500  1
  Ni  Ni9  1  0.50593000  0.71242100  0.21263500  1
  Ni  Ni10  1  0.49407000  0.28757900  0.78736500  1
  Ni  Ni11  1  0.00593000  0.28757900  0.78736500  1
  Cu  Cu12  1  0.93656500  0.75111500  0.89634400  1
  Cu  Cu13  1  0.56343500  0.75111500  0.89634400  1
  Cu  Cu14  1  0.93022400  0.98941000  0.25416900  1
  Cu  Cu15  1  0.56977600  0.98941000  0.25416900  1
  Cu  Cu16  1  0.43577300  0.77746300  0.46850400  1
  Cu  Cu17  1  0.06422700  0.77746300  0.46850400  1
  Cu  Cu18  1  0.44092600  0.60836800  0.73653100  1
  Cu  Cu19  1  0.05907400  0.60836800  0.73653100  1
  Cu  Cu20  1  0.94092600  0.39163200  0.26346900  1
  Cu  Cu21  1  0.55907400  0.39163200  0.26346900  1
  Cu  Cu22  1  0.93577300  0.22253700  0.53149600  1
  Cu  Cu23  1  0.56422700  0.22253700  0.53149600  1
  Cu  Cu24  1  0.43022400  0.01059000  0.74583100  1
  Cu  Cu25  1  0.06977600  0.01059000  0.74583100  1
  Cu  Cu26  1  0.43656500  0.24888500  0.10365600  1
  Cu  Cu27  1  0.06343500  0.24888500  0.10365600  1
  C  C28  1  0.25000000  0.75173100  0.28904100  1
  C  C29  1  0.25000000  0.42280100  0.74466800  1
  C  C30  1  0.75000000  0.57719900  0.25533200  1
  C  C31  1  0.75000000  0.24826900  0.71095900  1
  C  C32  1  0.25000000  0.95603000  0.75424700  1
  C  C33  1  0.94984600  0.88948000  0.78308800  1
  C  C34  1  0.55015400  0.88948000  0.78308800  1
  C  C35  1  0.96573500  0.90975900  0.40210700  1
  C  C36  1  0.53426500  0.90975900  0.40210700  1
  C  C37  1  0.75000000  0.71086100  0.90164500  1
  C  C38  1  0.25000000  0.82210900  0.46129200  1
  C  C39  1  0.95865700  0.91011200  0.17104700  1
  C  C40  1  0.54134300  0.91011200  0.17104700  1
  C  C41  1  0.46988900  0.64802600  0.85488400  1
  C  C42  1  0.03011100  0.64802600  0.85488400  1
  C  C43  1  0.00651800  0.72954000  0.61257800  1
  C  C44  1  0.49348200  0.72954000  0.61257800  1
  C  C45  1  0.25000000  0.58636000  0.72829500  1
  C  C46  1  0.46682500  0.67603900  0.40978700  1
  C  C47  1  0.03317500  0.67603900  0.40978700  1
  C  C48  1  0.25000000  0.74701900  0.20821900  1
  C  C49  1  0.96292100  0.48637700  0.74729400  1
  C  C50  1  0.53707900  0.48637700  0.74729400  1
  C  C51  1  0.75000000  0.66437800  0.24856800  1
  C  C52  1  0.00839700  0.75151800  0.02013700  1
  C  C53  1  0.49160300  0.75151800  0.02013700  1
  C  C54  1  0.99160300  0.24848200  0.97986300  1
  C  C55  1  0.50839700  0.24848200  0.97986300  1
  C  C56  1  0.25000000  0.33562200  0.75143200  1
  C  C57  1  0.46292100  0.51362300  0.25270600  1
  C  C58  1  0.03707900  0.51362300  0.25270600  1
  C  C59  1  0.75000000  0.25298100  0.79178100  1
  C  C60  1  0.96682500  0.32396100  0.59021300  1
  C  C61  1  0.53317500  0.32396100  0.59021300  1
  C  C62  1  0.75000000  0.41364000  0.27170500  1
  C  C63  1  0.99348200  0.27046000  0.38742200  1
  C  C64  1  0.50651800  0.27046000  0.38742200  1
  C  C65  1  0.96988900  0.35197400  0.14511600  1
  C  C66  1  0.53011100  0.35197400  0.14511600  1
  C  C67  1  0.45865700  0.08988800  0.82895300  1
  C  C68  1  0.04134300  0.08988800  0.82895300  1
  C  C69  1  0.75000000  0.17789100  0.53870800  1
  C  C70  1  0.25000000  0.28913900  0.09835500  1
  C  C71  1  0.46573500  0.09024100  0.59789300  1
  C  C72  1  0.03426500  0.09024100  0.59789300  1
  C  C73  1  0.44984600  0.11052000  0.21691200  1
  C  C74  1  0.05015400  0.11052000  0.21691200  1
  C  C75  1  0.75000000  0.04397000  0.24575300  1
