# generated using pymatgen
data_CuNi4C11
_symmetry_space_group_name_H-M   'P 1'
_cell_length_a   5.99879997
_cell_length_b   5.99879997
_cell_length_c   5.98749598
_cell_angle_alpha   60.26840743
_cell_angle_beta   60.26840743
_cell_angle_gamma   59.43487156
_symmetry_Int_Tables_number   1
_chemical_formula_structural   CuNi4C11
_chemical_formula_sum   'Cu1 Ni4 C11'
_cell_volume   152.30182060
_cell_formula_units_Z   1
loop_
 _symmetry_equiv_pos_site_id
 _symmetry_equiv_pos_as_xyz
  1  'x, y, z'
loop_
 _atom_site_type_symbol
 _atom_site_label
 _atom_site_symmetry_multiplicity
 _atom_site_fract_x
 _atom_site_fract_y
 _atom_site_fract_z
 _atom_site_occupancy
  C  C0  1  0.00000000  0.50000000  0.00000000  1
  C  C1  1  0.00000000  0.00000000  0.50000000  1
  C  C2  1  0.50000000  0.00000000  0.00000000  1
  Ni  Ni3  1  0.50000000  0.50000000  0.50000000  1
  Ni  Ni4  1  0.00000000  0.00000000  0.00000000  1
  Ni  Ni5  1  0.00000000  0.50000000  0.50000000  1
  Ni  Ni6  1  0.50000000  0.00000000  0.50000000  1
  Cu  Cu7  1  0.50000000  0.50000000  0.00000000  1
  C  C8  1  0.25367700  0.25367700  0.26563700  1
  C  C9  1  0.26360100  0.75075600  0.73730700  1
  C  C10  1  0.75075600  0.26360100  0.73730700  1
  C  C11  1  0.74224400  0.74224400  0.26618000  1
  C  C12  1  0.25775600  0.25775600  0.73382000  1
  C  C13  1  0.24924400  0.73639900  0.26269300  1
  C  C14  1  0.73639900  0.24924400  0.26269300  1
  C  C15  1  0.74632300  0.74632300  0.73436300  1
