# generated using pymatgen
data_CuNi3C10
_symmetry_space_group_name_H-M   'P 1'
_cell_length_a   5.90489725
_cell_length_b   5.90489725
_cell_length_c   9.61075800
_cell_angle_alpha   90.00000000
_cell_angle_beta   90.00000000
_cell_angle_gamma   119.33502686
_symmetry_Int_Tables_number   1
_chemical_formula_structural   CuNi3C10
_chemical_formula_sum   'Cu2 Ni6 C20'
_cell_volume   292.13542093
_cell_formula_units_Z   2
loop_
 _symmetry_equiv_pos_site_id
 _symmetry_equiv_pos_as_xyz
  1  'x, y, z'
loop_
 _atom_site_type_symbol
 _atom_site_label
 _atom_site_symmetry_multiplicity
 _atom_site_fract_x
 _atom_site_fract_y
 _atom_site_fract_z
 _atom_site_occupancy
  C  C0  1  0.33423200  0.66576800  0.89421000  1
  C  C1  1  0.99692600  0.00307400  0.99534700  1
  C  C2  1  0.00307400  0.99692600  0.49534700  1
  C  C3  1  0.66576800  0.33423200  0.39421000  1
  Ni  Ni4  1  0.16522300  0.34119600  0.21562200  1
  Ni  Ni5  1  0.65880400  0.83477700  0.21562200  1
  Ni  Ni6  1  0.17104600  0.82895400  0.21027000  1
  Ni  Ni7  1  0.82895400  0.17104600  0.71027000  1
  Ni  Ni8  1  0.34119600  0.16522300  0.71562200  1
  Ni  Ni9  1  0.83477700  0.65880400  0.71562200  1
  Cu  Cu10  1  0.33878600  0.66121400  0.49185300  1
  Cu  Cu11  1  0.66121400  0.33878600  0.99185300  1
  C  C12  1  0.17003200  0.32297600  0.60396800  1
  C  C13  1  0.48115600  0.51884400  0.33699800  1
  C  C14  1  0.34314000  0.65686000  0.09997100  1
  C  C15  1  0.99576000  0.00424000  0.30993300  1
  C  C16  1  0.00424000  0.99576000  0.80993300  1
  C  C17  1  0.67702400  0.82996800  0.60396800  1
  C  C18  1  0.03920800  0.50864800  0.33715900  1
  C  C19  1  0.49135200  0.96079200  0.33715900  1
  C  C20  1  0.83316800  0.16683200  0.10252900  1
  C  C21  1  0.16683200  0.83316800  0.60252900  1
  C  C22  1  0.50864800  0.03920800  0.83715900  1
  C  C23  1  0.96079200  0.49135200  0.83715900  1
  C  C24  1  0.65686000  0.34314000  0.59997100  1
  C  C25  1  0.32297600  0.17003200  0.10396800  1
  C  C26  1  0.51884400  0.48115600  0.83699800  1
  C  C27  1  0.82996800  0.67702400  0.10396800  1
