# generated using pymatgen
data_Cu7NiC3
_symmetry_space_group_name_H-M   'P 1'
_cell_length_a   6.23193500
_cell_length_b   9.20408200
_cell_length_c   10.50031597
_cell_angle_alpha   87.37097741
_cell_angle_beta   90.00000000
_cell_angle_gamma   90.00000000
_symmetry_Int_Tables_number   1
_chemical_formula_structural   Cu7NiC3
_chemical_formula_sum   'Cu28 Ni4 C12'
_cell_volume   601.65621916
_cell_formula_units_Z   4
loop_
 _symmetry_equiv_pos_site_id
 _symmetry_equiv_pos_as_xyz
  1  'x, y, z'
loop_
 _atom_site_type_symbol
 _atom_site_label
 _atom_site_symmetry_multiplicity
 _atom_site_fract_x
 _atom_site_fract_y
 _atom_site_fract_z
 _atom_site_occupancy
  C  C0  1  0.46155700  0.23768200  0.62145700  1
  C  C1  1  0.03844300  0.23768200  0.12145700  1
  C  C2  1  0.96155700  0.76231800  0.87854300  1
  C  C3  1  0.53844300  0.76231800  0.37854300  1
  C  C4  1  0.74604900  0.34452200  0.89164000  1
  C  C5  1  0.75395100  0.34452200  0.39164000  1
  C  C6  1  0.24604900  0.65547800  0.60836000  1
  C  C7  1  0.25395100  0.65547800  0.10836000  1
  C  C8  1  0.24849800  0.43507600  0.86167500  1
  C  C9  1  0.25150200  0.43507600  0.36167500  1
  C  C10  1  0.74849800  0.56492400  0.63832500  1
  C  C11  1  0.75150200  0.56492400  0.13832500  1
  Ni  Ni12  1  0.74625600  0.08454700  0.86389700  1
  Ni  Ni13  1  0.75374400  0.08454700  0.36389700  1
  Ni  Ni14  1  0.24625600  0.91545300  0.63610300  1
  Ni  Ni15  1  0.25374400  0.91545300  0.13610300  1
  Cu  Cu16  1  0.24257300  0.04715300  0.65230600  1
  Cu  Cu17  1  0.25742700  0.04715300  0.15230600  1
  Cu  Cu18  1  0.75546700  0.14560800  0.97489900  1
  Cu  Cu19  1  0.74453300  0.14560800  0.47489900  1
  Cu  Cu20  1  0.74039500  0.18668500  0.77013400  1
  Cu  Cu21  1  0.75960500  0.18668500  0.27013400  1
  Cu  Cu22  1  0.05532200  0.33483700  0.89810400  1
  Cu  Cu23  1  0.44095800  0.33291400  0.89132300  1
  Cu  Cu24  1  0.05904200  0.33291400  0.39132300  1
  Cu  Cu25  1  0.44467800  0.33483700  0.39810400  1
  Cu  Cu26  1  0.24876600  0.47745100  0.71661300  1
  Cu  Cu27  1  0.74700800  0.42611300  0.56273200  1
  Cu  Cu28  1  0.25123400  0.47745100  0.21661300  1
  Cu  Cu29  1  0.75299200  0.42611300  0.06273200  1
  Cu  Cu30  1  0.24700800  0.57388700  0.93726800  1
  Cu  Cu31  1  0.74876600  0.52254900  0.78338700  1
  Cu  Cu32  1  0.25299200  0.57388700  0.43726800  1
  Cu  Cu33  1  0.75123400  0.52254900  0.28338700  1
  Cu  Cu34  1  0.55532200  0.66516300  0.60189600  1
  Cu  Cu35  1  0.94095800  0.66708600  0.60867700  1
  Cu  Cu36  1  0.55904200  0.66708600  0.10867700  1
  Cu  Cu37  1  0.94467800  0.66516300  0.10189600  1
  Cu  Cu38  1  0.24039500  0.81331500  0.72986600  1
  Cu  Cu39  1  0.25960500  0.81331500  0.22986600  1
  Cu  Cu40  1  0.25546700  0.85439200  0.52510100  1
  Cu  Cu41  1  0.24453300  0.85439200  0.02510100  1
  Cu  Cu42  1  0.74257300  0.95284700  0.84769400  1
  Cu  Cu43  1  0.75742700  0.95284700  0.34769400  1
