# generated using pymatgen
data_Cu7NiC4
_symmetry_space_group_name_H-M   'P 1'
_cell_length_a   5.81029835
_cell_length_b   5.81029835
_cell_length_c   9.37469476
_cell_angle_alpha   86.00083012
_cell_angle_beta   86.00083012
_cell_angle_gamma   72.13953559
_symmetry_Int_Tables_number   1
_chemical_formula_structural   Cu7NiC4
_chemical_formula_sum   'Cu14 Ni2 C8'
_cell_volume   300.10962999
_cell_formula_units_Z   2
loop_
 _symmetry_equiv_pos_site_id
 _symmetry_equiv_pos_as_xyz
  1  'x, y, z'
loop_
 _atom_site_type_symbol
 _atom_site_label
 _atom_site_symmetry_multiplicity
 _atom_site_fract_x
 _atom_site_fract_y
 _atom_site_fract_z
 _atom_site_occupancy
  C  C0  1  0.64348500  0.12710900  0.36487300  1
  C  C1  1  0.35651500  0.87289100  0.63512700  1
  C  C2  1  0.22954100  0.77045900  0.25000000  1
  C  C3  1  0.50000000  0.00000000  0.00000000  1
  C  C4  1  0.00000000  0.50000000  0.50000000  1
  C  C5  1  0.12710900  0.64348500  0.86487300  1
  C  C6  1  0.87289100  0.35651500  0.13512700  1
  C  C7  1  0.77045900  0.22954100  0.75000000  1
  Ni  Ni8  1  0.94548600  0.05451400  0.25000000  1
  Ni  Ni9  1  0.05451400  0.94548600  0.75000000  1
  Cu  Cu10  1  0.69108500  0.80828300  0.50188200  1
  Cu  Cu11  1  0.53414000  0.46586000  0.25000000  1
  Cu  Cu12  1  0.30891500  0.19171700  0.49811800  1
  Cu  Cu13  1  0.71561700  0.23649200  0.98090800  1
  Cu  Cu14  1  0.47983600  0.98172100  0.22620000  1
  Cu  Cu15  1  0.23649200  0.71561700  0.48090800  1
  Cu  Cu16  1  0.98172100  0.47983600  0.72620000  1
  Cu  Cu17  1  0.28438300  0.76350800  0.01909200  1
  Cu  Cu18  1  0.52016400  0.01827900  0.77380000  1
  Cu  Cu19  1  0.01827900  0.52016400  0.27380000  1
  Cu  Cu20  1  0.76350800  0.28438300  0.51909200  1
  Cu  Cu21  1  0.19171700  0.30891500  0.99811800  1
  Cu  Cu22  1  0.46586000  0.53414000  0.75000000  1
  Cu  Cu23  1  0.80828300  0.69108500  0.00188200  1
