# generated using pymatgen
data_CuNi6C7
_symmetry_space_group_name_H-M   'P 1'
_cell_length_a   15.00139604
_cell_length_b   15.00139604
_cell_length_c   15.00139604
_cell_angle_alpha   168.62413448
_cell_angle_beta   168.62413448
_cell_angle_gamma   16.11455170
_symmetry_Int_Tables_number   1
_chemical_formula_structural   CuNi6C7
_chemical_formula_sum   'Cu1 Ni6 C7'
_cell_volume   131.33577898
_cell_formula_units_Z   1
loop_
 _symmetry_equiv_pos_site_id
 _symmetry_equiv_pos_as_xyz
  1  'x, y, z'
loop_
 _atom_site_type_symbol
 _atom_site_label
 _atom_site_symmetry_multiplicity
 _atom_site_fract_x
 _atom_site_fract_y
 _atom_site_fract_z
 _atom_site_occupancy
  C  C0  1  0.00000000  0.00000000  0.00000000  1
  C  C1  1  0.57289900  0.57289900  0.00000000  1
  C  C2  1  0.14296200  0.14296200  0.00000000  1
  C  C3  1  0.71445300  0.71445300  0.00000000  1
  C  C4  1  0.28554700  0.28554700  0.00000000  1
  C  C5  1  0.85703800  0.85703800  0.00000000  1
  C  C6  1  0.42710100  0.42710100  0.00000000  1
  Ni  Ni7  1  0.07159300  0.07159300  0.00000000  1
  Ni  Ni8  1  0.64331000  0.64331000  0.00000000  1
  Ni  Ni9  1  0.21441800  0.21441800  0.00000000  1
  Ni  Ni10  1  0.78558200  0.78558200  0.00000000  1
  Ni  Ni11  1  0.35669000  0.35669000  0.00000000  1
  Ni  Ni12  1  0.92840700  0.92840700  0.00000000  1
  Cu  Cu13  1  0.50000000  0.50000000  0.00000000  1
