# generated using pymatgen
data_Cu2Ni2C13
_symmetry_space_group_name_H-M   'P 1'
_cell_length_a   8.08611386
_cell_length_b   8.08611386
_cell_length_c   6.87361564
_cell_angle_alpha   85.99183481
_cell_angle_beta   85.99183481
_cell_angle_gamma   53.04273794
_symmetry_Int_Tables_number   1
_chemical_formula_structural   Cu2Ni2C13
_chemical_formula_sum   'Cu4 Ni4 C26'
_cell_volume   358.03728833
_cell_formula_units_Z   2
loop_
 _symmetry_equiv_pos_site_id
 _symmetry_equiv_pos_as_xyz
  1  'x, y, z'
loop_
 _atom_site_type_symbol
 _atom_site_label
 _atom_site_symmetry_multiplicity
 _atom_site_fract_x
 _atom_site_fract_y
 _atom_site_fract_z
 _atom_site_occupancy
  C  C0  1  0.37748900  0.37748900  0.69837500  1
  C  C1  1  0.00000000  0.50000000  0.50000000  1
  C  C2  1  0.50000000  0.00000000  0.50000000  1
  C  C3  1  0.62251100  0.62251100  0.30162500  1
  C  C4  1  0.75131800  0.24868200  0.00000000  1
  C  C5  1  0.24868200  0.75131800  0.00000000  1
  C  C6  1  0.50000000  0.00000000  0.00000000  1
  C  C7  1  0.00000000  0.50000000  0.00000000  1
  Ni  Ni8  1  0.88091000  0.88091000  0.69062700  1
  Ni  Ni9  1  0.39315500  0.39315500  0.23661800  1
  Ni  Ni10  1  0.60684500  0.60684500  0.76338200  1
  Ni  Ni11  1  0.11909000  0.11909000  0.30937300  1
  Cu  Cu12  1  0.94597300  0.94597300  0.36777300  1
  Cu  Cu13  1  0.80957700  0.80957700  0.21625200  1
  Cu  Cu14  1  0.19042300  0.19042300  0.78374800  1
  Cu  Cu15  1  0.05402700  0.05402700  0.63222700  1
  C  C16  1  0.97635900  0.97635900  0.77382500  1
  C  C17  1  0.49866000  0.49866000  0.23651400  1
  C  C18  1  0.88414300  0.88414300  0.45952800  1
  C  C19  1  0.64730800  0.00460000  0.74743900  1
  C  C20  1  0.00460000  0.64730800  0.74743900  1
  C  C21  1  0.33662700  0.33662700  0.43743500  1
  C  C22  1  0.54566500  0.18946200  0.11873200  1
  C  C23  1  0.18946200  0.54566500  0.11873200  1
  C  C24  1  0.24255800  0.24255800  0.86606000  1
  C  C25  1  0.75744200  0.75744200  0.13394000  1
  C  C26  1  0.81053800  0.45433500  0.88126800  1
  C  C27  1  0.45433500  0.81053800  0.88126800  1
  C  C28  1  0.66337300  0.66337300  0.56256500  1
  C  C29  1  0.35269200  0.99540000  0.25256100  1
  C  C30  1  0.99540000  0.35269200  0.25256100  1
  C  C31  1  0.11585700  0.11585700  0.54047200  1
  C  C32  1  0.50134000  0.50134000  0.76348600  1
  C  C33  1  0.02364100  0.02364100  0.22617500  1
