# generated using pymatgen
data_Cu3Ni8C7
_symmetry_space_group_name_H-M   'P 1'
_cell_length_a   8.92293000
_cell_length_b   9.21006700
_cell_length_c   10.50715900
_cell_angle_alpha   90.00000000
_cell_angle_beta   90.00000000
_cell_angle_gamma   90.00000000
_symmetry_Int_Tables_number   1
_chemical_formula_structural   Cu3Ni8C7
_chemical_formula_sum   'Cu12 Ni32 C28'
_cell_volume   863.48655516
_cell_formula_units_Z   4
loop_
 _symmetry_equiv_pos_site_id
 _symmetry_equiv_pos_as_xyz
  1  'x, y, z'
loop_
 _atom_site_type_symbol
 _atom_site_label
 _atom_site_symmetry_multiplicity
 _atom_site_fract_x
 _atom_site_fract_y
 _atom_site_fract_z
 _atom_site_occupancy
  C  C0  1  0.03692000  0.28234500  0.50000000  1
  C  C1  1  0.06208100  0.81419900  0.00000000  1
  C  C2  1  0.23096700  0.49283400  0.00000000  1
  C  C3  1  0.26903300  0.99283400  0.50000000  1
  C  C4  1  0.43791900  0.31419900  0.50000000  1
  C  C5  1  0.46308000  0.78234500  0.00000000  1
  C  C6  1  0.53692000  0.21765500  0.00000000  1
  C  C7  1  0.56208100  0.68580100  0.50000000  1
  C  C8  1  0.73096700  0.00716600  0.50000000  1
  C  C9  1  0.76903300  0.50716600  0.00000000  1
  C  C10  1  0.93791900  0.18580100  0.00000000  1
  C  C11  1  0.96308000  0.71765500  0.50000000  1
  C  C12  1  0.25097600  0.24898300  0.18534400  1
  C  C13  1  0.25097600  0.24898300  0.81465600  1
  C  C14  1  0.24902400  0.74898300  0.31465600  1
  C  C15  1  0.24902400  0.74898300  0.68534400  1
  C  C16  1  0.75097600  0.25101700  0.31465600  1
  C  C17  1  0.75097600  0.25101700  0.68534400  1
  C  C18  1  0.74902400  0.75101700  0.81465600  1
  C  C19  1  0.74902400  0.75101700  0.18534400  1
  C  C20  1  0.00000000  0.00000000  0.27462300  1
  C  C21  1  0.00000000  0.50000000  0.26366000  1
  C  C22  1  0.00000000  0.00000000  0.72537700  1
  C  C23  1  0.00000000  0.50000000  0.73634000  1
  C  C24  1  0.50000000  0.50000000  0.22537700  1
  C  C25  1  0.50000000  0.00000000  0.23634000  1
  C  C26  1  0.50000000  0.00000000  0.76366000  1
  C  C27  1  0.50000000  0.50000000  0.77462300  1
  Ni  Ni28  1  0.07653200  0.61307100  0.64757100  1
  Ni  Ni29  1  0.07653200  0.61307100  0.35242900  1
  Ni  Ni30  1  0.09095600  0.09944400  0.81645700  1
  Ni  Ni31  1  0.09095600  0.09944400  0.18354300  1
  Ni  Ni32  1  0.09853200  0.90681900  0.63644900  1
  Ni  Ni33  1  0.09853200  0.90681900  0.36355100  1
  Ni  Ni34  1  0.11363100  0.42358300  0.82390800  1
  Ni  Ni35  1  0.11363100  0.42358300  0.17609200  1
  Ni  Ni36  1  0.38636900  0.92358300  0.67609200  1
  Ni  Ni37  1  0.38636900  0.92358300  0.32390800  1
  Ni  Ni38  1  0.40146800  0.40681900  0.13644900  1
  Ni  Ni39  1  0.40146800  0.40681900  0.86355100  1
  Ni  Ni40  1  0.40904400  0.59944400  0.68354300  1
  Ni  Ni41  1  0.40904400  0.59944400  0.31645700  1
  Ni  Ni42  1  0.42346800  0.11307100  0.85242900  1
  Ni  Ni43  1  0.42346800  0.11307100  0.14757100  1
  Ni  Ni44  1  0.57653200  0.88692900  0.14757100  1
  Ni  Ni45  1  0.57653200  0.88692900  0.85242900  1
  Ni  Ni46  1  0.59095600  0.40055600  0.68354300  1
  Ni  Ni47  1  0.59095600  0.40055600  0.31645700  1
  Ni  Ni48  1  0.59853200  0.59318100  0.86355100  1
  Ni  Ni49  1  0.59853200  0.59318100  0.13644900  1
  Ni  Ni50  1  0.61363100  0.07641700  0.67609200  1
  Ni  Ni51  1  0.61363100  0.07641700  0.32390800  1
  Ni  Ni52  1  0.88636900  0.57641700  0.17609200  1
  Ni  Ni53  1  0.88636900  0.57641700  0.82390800  1
  Ni  Ni54  1  0.90146800  0.09318100  0.63644900  1
  Ni  Ni55  1  0.90146800  0.09318100  0.36355100  1
  Ni  Ni56  1  0.90904400  0.90055600  0.18354300  1
  Ni  Ni57  1  0.90904400  0.90055600  0.81645700  1
  Ni  Ni58  1  0.92346800  0.38692900  0.64757100  1
  Ni  Ni59  1  0.92346800  0.38692900  0.35242900  1
  Cu  Cu60  1  0.27729400  0.24733800  0.37593000  1
  Cu  Cu61  1  0.27729400  0.24733800  0.62407000  1
  Cu  Cu62  1  0.19918100  0.25079800  0.00000000  1
  Cu  Cu63  1  0.30081900  0.75079800  0.50000000  1
  Cu  Cu64  1  0.22270600  0.74733800  0.87593000  1
  Cu  Cu65  1  0.22270600  0.74733800  0.12407000  1
  Cu  Cu66  1  0.77729400  0.25266200  0.87593000  1
  Cu  Cu67  1  0.77729400  0.25266200  0.12407000  1
  Cu  Cu68  1  0.69918100  0.24920200  0.50000000  1
  Cu  Cu69  1  0.80081900  0.74920200  0.00000000  1
  Cu  Cu70  1  0.72270600  0.75266200  0.62407000  1
  Cu  Cu71  1  0.72270600  0.75266200  0.37593000  1
