# generated using pymatgen
data_Cu3NiC14
_symmetry_space_group_name_H-M   'P 1'
_cell_length_a   8.84389740
_cell_length_b   8.84389740
_cell_length_c   8.84389703
_cell_angle_alpha   58.71554481
_cell_angle_beta   58.71554481
_cell_angle_gamma   58.71555014
_symmetry_Int_Tables_number   1
_chemical_formula_structural   Cu3NiC14
_chemical_formula_sum   'Cu6 Ni2 C28'
_cell_volume   474.76643455
_cell_formula_units_Z   2
loop_
 _symmetry_equiv_pos_site_id
 _symmetry_equiv_pos_as_xyz
  1  'x, y, z'
loop_
 _atom_site_type_symbol
 _atom_site_label
 _atom_site_symmetry_multiplicity
 _atom_site_fract_x
 _atom_site_fract_y
 _atom_site_fract_z
 _atom_site_occupancy
  C  C0  1  0.14553800  0.14553800  0.14553800  1
  C  C1  1  0.85062000  0.85062000  0.85062000  1
  C  C2  1  0.64932300  0.64932300  0.64932300  1
  C  C3  1  0.35099100  0.35099100  0.35099100  1
  Ni  Ni4  1  0.99706000  0.99706000  0.99706000  1
  Ni  Ni5  1  0.50043600  0.50043600  0.50043600  1
  Cu  Cu6  1  0.96054400  0.25032000  0.53795200  1
  Cu  Cu7  1  0.53795200  0.96054400  0.25032000  1
  Cu  Cu8  1  0.25032000  0.53795200  0.96054400  1
  Cu  Cu9  1  0.75067800  0.45938900  0.04147800  1
  Cu  Cu10  1  0.45938900  0.04147800  0.75067800  1
  Cu  Cu11  1  0.04147800  0.75067800  0.45938900  1
  C  C12  1  0.88393200  0.69955200  0.49124300  1
  C  C13  1  0.69955200  0.49124300  0.88393200  1
  C  C14  1  0.94052800  0.08269200  0.73315800  1
  C  C15  1  0.49124300  0.88393200  0.69955200  1
  C  C16  1  0.99175100  0.19912400  0.38231900  1
  C  C17  1  0.76677600  0.41702800  0.56076500  1
  C  C18  1  0.73315800  0.94052800  0.08269200  1
  C  C19  1  0.56076500  0.76677600  0.41702800  1
  C  C20  1  0.80204600  0.61722500  0.00776500  1
  C  C21  1  0.41702800  0.56076500  0.76677600  1
  C  C22  1  0.91828000  0.26769000  0.06104300  1
  C  C23  1  0.61722500  0.00776500  0.80204600  1
  C  C24  1  0.38231900  0.99175100  0.19912400  1
  C  C25  1  0.08269200  0.73315800  0.94052800  1
  C  C26  1  0.58278100  0.43999200  0.23352700  1
  C  C27  1  0.19912400  0.38231900  0.99175100  1
  C  C28  1  0.43999200  0.23352700  0.58278100  1
  C  C29  1  0.26769000  0.06104300  0.91828000  1
  C  C30  1  0.23352700  0.58278100  0.43999200  1
  C  C31  1  0.00776500  0.80204600  0.61722500  1
  C  C32  1  0.50751000  0.11643900  0.30250300  1
  C  C33  1  0.06104300  0.91828000  0.26769000  1
  C  C34  1  0.30250300  0.50751000  0.11643900  1
  C  C35  1  0.11643900  0.30250300  0.50751000  1
