# generated using pymatgen
data_Cu11Ni25C48
_symmetry_space_group_name_H-M   'P 1'
_cell_length_a   10.24135298
_cell_length_b   10.24135298
_cell_length_c   10.23562843
_cell_angle_alpha   80.40827886
_cell_angle_beta   80.40827886
_cell_angle_gamma   119.99848173
_symmetry_Int_Tables_number   1
_chemical_formula_structural   Cu11Ni25C48
_chemical_formula_sum   'Cu11 Ni25 C48'
_cell_volume   876.60631587
_cell_formula_units_Z   1
loop_
 _symmetry_equiv_pos_site_id
 _symmetry_equiv_pos_as_xyz
  1  'x, y, z'
loop_
 _atom_site_type_symbol
 _atom_site_label
 _atom_site_symmetry_multiplicity
 _atom_site_fract_x
 _atom_site_fract_y
 _atom_site_fract_z
 _atom_site_occupancy
  Ni  Ni0  1  0.10307200  0.93494400  0.18561400  1
  Ni  Ni1  1  0.10365700  0.43995900  0.18599900  1
  Ni  Ni2  1  0.20802600  0.20802600  0.37529500  1
  Ni  Ni3  1  0.26998700  0.77261900  0.18970800  1
  Ni  Ni4  1  0.43860700  0.60798100  0.18595400  1
  Ni  Ni5  1  0.60798100  0.43860700  0.18595400  1
  Ni  Ni6  1  0.10357500  0.93468900  0.68991700  1
  Ni  Ni7  1  0.27203100  0.27203100  0.69015900  1
  Ni  Ni8  1  0.18700200  0.85099800  0.43852100  1
  Ni  Ni9  1  0.43995900  0.10365700  0.18599900  1
  Ni  Ni10  1  0.52342500  0.52342500  0.43934600  1
  Ni  Ni11  1  0.02292900  0.02292900  0.93389900  1
  Ni  Ni12  1  0.76695600  0.76695600  0.18978500  1
  Ni  Ni13  1  0.77261900  0.26998700  0.18970800  1
  Ni  Ni14  1  0.27222400  0.77194500  0.68713800  1
  Ni  Ni15  1  0.60415700  0.43645100  0.68705700  1
  Ni  Ni16  1  0.93494400  0.10307200  0.18561400  1
  Ni  Ni17  1  0.43645100  0.60415700  0.68705700  1
  Ni  Ni18  1  0.35423100  0.68714800  0.93649200  1
  Ni  Ni19  1  0.60410400  0.93653100  0.68707600  1
  Ni  Ni20  1  0.85099800  0.18700200  0.43852100  1
  Ni  Ni21  1  0.93468900  0.10357500  0.68991700  1
  Ni  Ni22  1  0.77194500  0.27222400  0.68713800  1
  Ni  Ni23  1  0.93653100  0.60410400  0.68707600  1
  Ni  Ni24  1  0.68714800  0.35423100  0.93649200  1
  Cu  Cu25  1  0.16668200  0.50048500  0.50014700  1
  Cu  Cu26  1  0.04106400  0.37547000  0.87513800  1
  Cu  Cu27  1  0.54163500  0.87516200  0.37508000  1
  Cu  Cu28  1  0.00001700  0.66686800  0.00015700  1
  Cu  Cu29  1  0.50048500  0.16668200  0.50014700  1
  Cu  Cu30  1  0.83294900  0.83294900  0.49994600  1
  Cu  Cu31  1  0.33325400  0.33325400  0.99956700  1
  Cu  Cu32  1  0.37547000  0.04106400  0.87513800  1
  Cu  Cu33  1  0.87516200  0.54163500  0.37508000  1
  Cu  Cu34  1  0.70845700  0.70845700  0.87471600  1
  Cu  Cu35  1  0.66686800  0.00001700  0.00015700  1
  C  C36  1  0.16015800  0.16015800  0.05607600  1
  C  C37  1  0.13455900  0.64694400  0.05784000  1
  C  C38  1  0.31457100  0.46862200  0.05678200  1
  C  C39  1  0.46862200  0.31457100  0.05678200  1
  C  C40  1  0.05463100  0.23116700  0.30856200  1
  C  C41  1  0.23116700  0.05463100  0.30856200  1
  C  C42  1  0.04865000  0.71263200  0.31667400  1
  C  C43  1  0.31901900  0.98219400  0.04723900  1
  C  C44  1  0.40873900  0.40873900  0.30732400  1
  C  C45  1  0.14170500  0.14170500  0.57389000  1
  C  C46  1  0.65230300  0.65230300  0.04800800  1
  C  C47  1  0.49332100  0.82564600  0.05809500  1
  C  C48  1  0.22456100  0.55837200  0.32685900  1
  C  C49  1  0.64694400  0.13455900  0.05784000  1
  C  C50  1  0.14709500  0.63587200  0.55846100  1
  C  C51  1  0.97981200  0.80151500  0.05799400  1
  C  C52  1  0.80151500  0.97981200  0.05799400  1
  C  C53  1  0.48188800  0.30102400  0.55800800  1
  C  C54  1  0.30102400  0.48188800  0.55800800  1
  C  C55  1  0.05923700  0.23960800  0.82015600  1
  C  C56  1  0.56411600  0.74309900  0.31574400  1
  C  C57  1  0.74309900  0.56411600  0.31574400  1
  C  C58  1  0.23960800  0.05923700  0.82015600  1
  C  C59  1  0.40724500  0.89213600  0.31651300  1
  C  C60  1  0.21523500  0.54896800  0.81716400  1
  C  C61  1  0.48374700  0.81670400  0.54860300  1
  C  C62  1  0.98219400  0.31901900  0.04723900  1
  C  C63  1  0.71263200  0.04865000  0.31667400  1
  C  C64  1  0.88923000  0.88923000  0.32679200  1
  C  C65  1  0.05763700  0.72468400  0.82696600  1
  C  C66  1  0.32773700  0.99329600  0.55822100  1
  C  C67  1  0.39174600  0.39174600  0.82553100  1
  C  C68  1  0.65852500  0.65852500  0.55832800  1
  C  C69  1  0.82564600  0.49332100  0.05809500  1
  C  C70  1  0.55837200  0.22456100  0.32685900  1
  C  C71  1  0.96666600  0.81287300  0.55826200  1
  C  C72  1  0.63587200  0.14709500  0.55846100  1
  C  C73  1  0.81287300  0.96666600  0.55826200  1
  C  C74  1  0.72795000  0.57348700  0.81735100  1
  C  C75  1  0.89213600  0.40724500  0.31651300  1
  C  C76  1  0.57348700  0.72795000  0.81735100  1
  C  C77  1  0.39456100  0.90629900  0.81644700  1
  C  C78  1  0.81670400  0.48374700  0.54860300  1
  C  C79  1  0.54896800  0.21523500  0.81716400  1
  C  C80  1  0.88089400  0.88089400  0.81946100  1
  C  C81  1  0.72468400  0.05763700  0.82696600  1
  C  C82  1  0.99329600  0.32773700  0.55822100  1
  C  C83  1  0.90629900  0.39456100  0.81644700  1
