# generated using pymatgen
data_CuNi3C10
_symmetry_space_group_name_H-M   'P 1'
_cell_length_a   5.96093495
_cell_length_b   9.87048131
_cell_length_c   10.29237845
_cell_angle_alpha   90.02047135
_cell_angle_beta   90.05304360
_cell_angle_gamma   90.02023459
_symmetry_Int_Tables_number   1
_chemical_formula_structural   CuNi3C10
_chemical_formula_sum   'Cu4 Ni12 C40'
_cell_volume   605.57539174
_cell_formula_units_Z   4
loop_
 _symmetry_equiv_pos_site_id
 _symmetry_equiv_pos_as_xyz
  1  'x, y, z'
loop_
 _atom_site_type_symbol
 _atom_site_label
 _atom_site_symmetry_multiplicity
 _atom_site_fract_x
 _atom_site_fract_y
 _atom_site_fract_z
 _atom_site_occupancy
  C  C0  1  0.50022700  0.89026200  0.16645200  1
  C  C1  1  0.00076300  0.89027000  0.66638000  1
  C  C2  1  0.99994500  0.39016900  0.33370400  1
  C  C3  1  0.50069900  0.39022000  0.83375100  1
  C  C4  1  0.49991100  0.99900800  0.49961400  1
  C  C5  1  0.99956600  0.99903500  0.99977600  1
  C  C6  1  0.99988200  0.49896700  0.00023300  1
  C  C7  1  0.49925800  0.49901400  0.50008400  1
  Ni  Ni8  1  0.74632400  0.21458900  0.08514700  1
  Ni  Ni9  1  0.24600400  0.21494700  0.58473600  1
  Ni  Ni10  1  0.25288500  0.21503700  0.08430700  1
  Ni  Ni11  1  0.75233500  0.21455500  0.58464100  1
  Ni  Ni12  1  0.49934900  0.21672100  0.33267600  1
  Ni  Ni13  1  0.00002800  0.21674600  0.83237700  1
  Ni  Ni14  1  0.99946800  0.71639500  0.16724400  1
  Ni  Ni15  1  0.50016500  0.71638800  0.66723200  1
  Ni  Ni16  1  0.24689500  0.71556400  0.41495300  1
  Ni  Ni17  1  0.74632600  0.71569300  0.91531000  1
  Ni  Ni18  1  0.75348900  0.71446900  0.41536100  1
  Ni  Ni19  1  0.25300000  0.71429100  0.91507600  1
  Cu  Cu20  1  0.00055000  0.49249400  0.66806300  1
  Cu  Cu21  1  0.50135700  0.99294800  0.83252000  1
  Cu  Cu22  1  0.49960400  0.49282700  0.16808200  1
  Cu  Cu23  1  0.00053900  0.99286400  0.33183900  1
  C  C24  1  0.49996300  0.10583600  0.16658400  1
  C  C25  1  0.99997700  0.10575800  0.66661300  1
  C  C26  1  0.99980700  0.60587200  0.33339300  1
  C  C27  1  0.49981100  0.60585600  0.83332800  1
  C  C28  1  0.99973700  0.31558500  0.00065000  1
  C  C29  1  0.49967000  0.31574000  0.50070800  1
  C  C30  1  0.50003100  0.81570400  0.49924800  1
  C  C31  1  0.99999100  0.81571800  0.99928100  1
  C  C32  1  0.76613700  0.60863200  0.07778200  1
  C  C33  1  0.26545200  0.60892100  0.57838900  1
  C  C34  1  0.23430200  0.60869300  0.07821400  1
  C  C35  1  0.73384600  0.60851700  0.57762200  1
  C  C36  1  0.99990000  0.10752500  0.15777500  1
  C  C37  1  0.50091100  0.10766500  0.65735300  1
  C  C38  1  0.49949800  0.60755500  0.34214900  1
  C  C39  1  0.00093700  0.60750300  0.84219900  1
  C  C40  1  0.26539400  0.10857600  0.42179400  1
  C  C41  1  0.76474600  0.10848400  0.92143600  1
  C  C42  1  0.73388700  0.10881800  0.42211600  1
  C  C43  1  0.23357900  0.10847400  0.92259600  1
  C  C44  1  0.50007700  0.32767800  0.01846300  1
  C  C45  1  0.00023900  0.32770700  0.51858500  1
  C  C46  1  0.72546300  0.32595600  0.24144700  1
  C  C47  1  0.22626200  0.32507400  0.74226400  1
  C  C48  1  0.27420400  0.32559800  0.24210300  1
  C  C49  1  0.77503500  0.32623100  0.74163600  1
  C  C50  1  0.22613200  0.82548100  0.25821000  1
  C  C51  1  0.72641400  0.82510700  0.75772100  1
  C  C52  1  0.77485300  0.82611500  0.25830000  1
  C  C53  1  0.27587600  0.82697400  0.75889400  1
  C  C54  1  0.99969600  0.82774400  0.48156000  1
  C  C55  1  0.50020900  0.82711200  0.98202800  1
