# generated using pymatgen
data_Cu2(Ni2C13)3
_symmetry_space_group_name_H-M   'P 1'
_cell_length_a   9.70917100
_cell_length_b   9.70917100
_cell_length_c   30.08617200
_cell_angle_alpha   90.00000000
_cell_angle_beta   90.00000000
_cell_angle_gamma   90.00000000
_symmetry_Int_Tables_number   1
_chemical_formula_structural   Cu2(Ni2C13)3
_chemical_formula_sum   'Cu8 Ni24 C156'
_cell_volume   2836.16330744
_cell_formula_units_Z   4
loop_
 _symmetry_equiv_pos_site_id
 _symmetry_equiv_pos_as_xyz
  1  'x, y, z'
loop_
 _atom_site_type_symbol
 _atom_site_label
 _atom_site_symmetry_multiplicity
 _atom_site_fract_x
 _atom_site_fract_y
 _atom_site_fract_z
 _atom_site_occupancy
  Ni  Ni0  1  0.06383900  0.94085900  0.81227500  1
  Ni  Ni1  1  0.99126800  0.67632800  0.40421800  1
  Ni  Ni2  1  0.91743300  0.39627000  0.51864900  1
  Ni  Ni3  1  0.60373000  0.08256700  0.98135100  1
  Ni  Ni4  1  0.93616100  0.05914100  0.31227500  1
  Ni  Ni5  1  0.00873200  0.32367200  0.90421800  1
  Ni  Ni6  1  0.89627000  0.58256700  0.76864900  1
  Ni  Ni7  1  0.56383900  0.55914100  0.43772500  1
  Ni  Ni8  1  0.55914100  0.56383900  0.56227500  1
  Ni  Ni9  1  0.44085900  0.43616100  0.06227500  1
  Ni  Ni10  1  0.08256700  0.60373000  0.01864900  1
  Ni  Ni11  1  0.17632800  0.50873200  0.65421800  1
  Ni  Ni12  1  0.41743300  0.10373000  0.73135100  1
  Ni  Ni13  1  0.58256700  0.89627000  0.23135100  1
  Ni  Ni14  1  0.49126800  0.82367200  0.84578200  1
  Ni  Ni15  1  0.43616100  0.44085900  0.93772500  1
  Ni  Ni16  1  0.94085900  0.06383900  0.18772500  1
  Ni  Ni17  1  0.50873200  0.17632800  0.34578200  1
  Ni  Ni18  1  0.67632800  0.99126800  0.59578200  1
  Ni  Ni19  1  0.39627000  0.91743300  0.48135100  1
  Ni  Ni20  1  0.10373000  0.41743300  0.26864900  1
  Ni  Ni21  1  0.05914100  0.93616100  0.68772500  1
  Ni  Ni22  1  0.82367200  0.49126800  0.15421800  1
  Ni  Ni23  1  0.32367200  0.00873200  0.09578200  1
  Cu  Cu24  1  0.34032100  0.22724600  0.57236500  1
  Cu  Cu25  1  0.72724600  0.15967900  0.82236500  1
  Cu  Cu26  1  0.22724600  0.34032100  0.42763500  1
  Cu  Cu27  1  0.77275400  0.65967900  0.92763500  1
  Cu  Cu28  1  0.65967900  0.77275400  0.07236500  1
  Cu  Cu29  1  0.84032100  0.27275400  0.67763500  1
  Cu  Cu30  1  0.15967900  0.72724600  0.17763500  1
  Cu  Cu31  1  0.27275400  0.84032100  0.32236500  1
  C  C32  1  0.32754500  0.42931200  0.81461700  1
  C  C33  1  0.67245500  0.57068800  0.31461700  1
  C  C34  1  0.92931200  0.17245500  0.06461700  1
  C  C35  1  0.17245500  0.92931200  0.93538300  1
  C  C36  1  0.57068800  0.67245500  0.68538300  1
  C  C37  1  0.42931200  0.32754500  0.18538300  1
  C  C38  1  0.82754500  0.07068800  0.43538300  1
  C  C39  1  0.07068800  0.82754500  0.56461700  1
  C  C40  1  0.71299400  0.28700600  0.25000000  1
  C  C41  1  0.21299400  0.21299400  0.00000000  1
  C  C42  1  0.14739900  0.38693200  0.13152400  1
  C  C43  1  0.76645700  0.44075000  0.02656400  1
  C  C44  1  0.99013900  0.85290700  0.09557700  1
  C  C45  1  0.35290700  0.50986100  0.34557700  1
  C  C46  1  0.78700600  0.78700600  0.50000000  1
  C  C47  1  0.35260100  0.88693200  0.61847600  1
  C  C48  1  0.05925000  0.26645700  0.77656400  1
  C  C49  1  0.85260100  0.61306800  0.63152400  1
  C  C50  1  0.23354300  0.55925000  0.52656400  1
  C  C51  1  0.28700600  0.71299400  0.75000000  1
  C  C52  1  0.85290700  0.99013900  0.90442300  1
  C  C53  1  0.88693200  0.35260100  0.38152400  1
  C  C54  1  0.64709300  0.49013900  0.84557700  1
  C  C55  1  0.11306800  0.64739900  0.88152400  1
  C  C56  1  0.55925000  0.23354300  0.47343600  1
  C  C57  1  0.73354300  0.94075000  0.72343600  1
  C  C58  1  0.14709300  0.00986100  0.40442300  1
  C  C59  1  0.38693200  0.14739900  0.86847600  1
  C  C60  1  0.61306800  0.85260100  0.36847600  1
  C  C61  1  0.50986100  0.35290700  0.65442300  1
  C  C62  1  0.49013900  0.64709300  0.15442300  1
  C  C63  1  0.94075000  0.73354300  0.27656400  1
  C  C64  1  0.26645700  0.05925000  0.22343600  1
  C  C65  1  0.00986100  0.14709300  0.59557700  1
  C  C66  1  0.64739900  0.11306800  0.11847600  1
  C  C67  1  0.44075000  0.76645700  0.97343600  1
  C  C68  1  0.88128200  0.82203300  0.53858000  1
  C  C69  1  0.21591600  0.53561600  0.87460700  1
  C  C70  1  0.29971700  0.27661100  0.85578900  1
  C  C71  1  0.82203300  0.88128200  0.46142000  1
  C  C72  1  0.18871100  0.10689900  0.43899800  1
  C  C73  1  0.11871800  0.17796700  0.03858000  1
  C  C74  1  0.18211800  0.46066000  0.09062600  1
  C  C75  1  0.97815900  0.21764800  0.81514800  1
  C  C76  1  0.39310100  0.68871100  0.18899800  1
  C  C77  1  0.65603800  0.33990200  0.48884000  1
  C  C78  1  0.17796700  0.11871800  0.96142000  1
  C  C79  1  0.02110600  0.61191800  0.91850500  1
  C  C80  1  0.68006100  0.02811800  0.75920500  1
  C  C81  1  0.80782800  0.94932400  0.85947700  1
  C  C82  1  0.03934000  0.68211800  0.84062600  1
  C  C83  1  0.64615100  0.81070400  0.51565100  1
  C  C84  1  0.81391800  0.13312400  0.91453400  1
  C  C85  1  0.18608200  0.86687600  0.41453400  1
  C  C86  1  0.34396200  0.66009800  0.98884000  1
  C  C87  1  0.18929600  0.35384900  0.98434900  1
  C  C88  1  0.72338900  0.70028300  0.64421100  1
  C  C89  1  0.13312400  0.81391800  0.08546600  1
  C  C90  1  0.71591600  0.96438400  0.37539300  1
  C  C91  1  0.66009800  0.34396200  0.01116000  1
  C  C92  1  0.38808200  0.97889400  0.58149500  1
  C  C93  1  0.11191800  0.47889400  0.16850500  1
  C  C94  1  0.52110600  0.88808200  0.33149500  1
  C  C95  1  0.02811800  0.68006100  0.24079500  1
  C  C96  1  0.33990200  0.65603800  0.51116000  1
  C  C97  1  0.31993900  0.97188200  0.25920500  1
  C  C98  1  0.09024000  0.85116500  0.97380400  1
  C  C99  1  0.21764800  0.97815900  0.18485200  1
  C  C100  1  0.89310100  0.81128900  0.06100200  1
  C  C101  1  0.63312400  0.68608200  0.16453400  1
  C  C102  1  0.94932400  0.80782800  0.14052300  1
  C  C103  1  0.28408400  0.03561600  0.87539300  1
  C  C104  1  0.67796700  0.38128200  0.28858000  1
  C  C105  1  0.81788200  0.53934000  0.59062600  1
  C  C106  1  0.81070400  0.64615100  0.48434900  1
  C  C107  1  0.53934000  0.81788200  0.40937400  1
  C  C108  1  0.18006100  0.47188200  0.49079500  1
  C  C109  1  0.97188200  0.31993900  0.74079500  1
  C  C110  1  0.36687600  0.31391800  0.66453400  1
  C  C111  1  0.81993900  0.52811800  0.99079500  1
  C  C112  1  0.20028300  0.77661100  0.89421100  1
  C  C113  1  0.48345700  0.49155600  0.84862900  1
  C  C114  1  0.68871100  0.39310100  0.81100200  1
  C  C115  1  0.53561600  0.21591600  0.12539300  1
  C  C116  1  0.78235200  0.02184100  0.68485200  1
  C  C117  1  0.51654300  0.50844400  0.34862900  1
  C  C118  1  0.01654300  0.99155600  0.90137100  1
  C  C119  1  0.50844400  0.51654300  0.65137100  1
  C  C120  1  0.10689900  0.18871100  0.56100200  1
  C  C121  1  0.28235200  0.47815900  0.56514800  1
  C  C122  1  0.77661100  0.20028300  0.10578900  1
  C  C123  1  0.52811800  0.81993900  0.00920500  1
  C  C124  1  0.32203300  0.61871800  0.78858000  1
  C  C125  1  0.61191800  0.02110600  0.08149500  1
  C  C126  1  0.52184100  0.71764800  0.93485200  1
  C  C127  1  0.68929600  0.14615100  0.26565100  1
  C  C128  1  0.59024000  0.64883500  0.27619600  1
  C  C129  1  0.64119600  0.10433500  0.45624700  1
  C  C130  1  0.47815900  0.28235200  0.43485200  1
  C  C131  1  0.00844400  0.98345700  0.59862900  1
  C  C132  1  0.61871800  0.32203300  0.21142000  1
  C  C133  1  0.31391800  0.36687600  0.33546600  1
  C  C134  1  0.30782800  0.55067600  0.39052300  1
  C  C135  1  0.31128900  0.60689900  0.31100200  1
  C  C136  1  0.96438400  0.71591600  0.62460700  1
  C  C137  1  0.35384900  0.18929600  0.01565100  1
  C  C138  1  0.68211800  0.03934000  0.15937400  1
  C  C139  1  0.03561600  0.28408400  0.12460700  1
  C  C140  1  0.44932400  0.69217200  0.10947700  1
  C  C141  1  0.81128900  0.89310100  0.93899800  1
  C  C142  1  0.99155600  0.01654300  0.09862900  1
  C  C143  1  0.79971700  0.22338900  0.39421100  1
  C  C144  1  0.22338900  0.79971700  0.60578900  1
  C  C145  1  0.47188200  0.18006100  0.50920500  1
  C  C146  1  0.16009800  0.15603800  0.23884000  1
  C  C147  1  0.85384900  0.31070400  0.23434900  1
  C  C148  1  0.40976000  0.35116500  0.77619600  1
  C  C149  1  0.96066000  0.31788200  0.34062600  1
  C  C150  1  0.10433500  0.64119600  0.54375300  1
  C  C151  1  0.19217200  0.05067600  0.35947700  1
  C  C152  1  0.68608200  0.63312400  0.83546600  1
  C  C153  1  0.31070400  0.85384900  0.76565100  1
  C  C154  1  0.27661100  0.29971700  0.14421100  1
  C  C155  1  0.05067600  0.19217200  0.64052300  1
  C  C156  1  0.35116500  0.40976000  0.22380400  1
  C  C157  1  0.46066000  0.18211800  0.90937400  1
  C  C158  1  0.55067600  0.30782800  0.60947700  1
  C  C159  1  0.71764800  0.52184100  0.06514800  1
  C  C160  1  0.78408400  0.46438400  0.37460700  1
  C  C161  1  0.84396200  0.83990200  0.26116000  1
  C  C162  1  0.89566500  0.35880400  0.04375300  1
  C  C163  1  0.85880400  0.60433500  0.29375300  1
  C  C164  1  0.14615100  0.68929600  0.73434900  1
  C  C165  1  0.46438400  0.78408400  0.62539300  1
  C  C166  1  0.14883500  0.90976000  0.52619600  1
  C  C167  1  0.98345700  0.00844400  0.40137100  1
  C  C168  1  0.47889400  0.11191800  0.83149500  1
  C  C169  1  0.69217200  0.44932400  0.89052300  1
  C  C170  1  0.64883500  0.59024000  0.72380400  1
  C  C171  1  0.83990200  0.84396200  0.73884000  1
  C  C172  1  0.02184100  0.78235200  0.31514800  1
  C  C173  1  0.38128200  0.67796700  0.71142000  1
  C  C174  1  0.88808200  0.52110600  0.66850500  1
  C  C175  1  0.49155600  0.48345700  0.15137100  1
  C  C176  1  0.60689900  0.31128900  0.68899800  1
  C  C177  1  0.14119600  0.39566500  0.79375300  1
  C  C178  1  0.15603800  0.16009800  0.76116000  1
  C  C179  1  0.35880400  0.89566500  0.95624700  1
  C  C180  1  0.39566500  0.14119600  0.20624700  1
  C  C181  1  0.70028300  0.72338900  0.35578900  1
  C  C182  1  0.90976000  0.14883500  0.47380400  1
  C  C183  1  0.86687600  0.18608200  0.58546600  1
  C  C184  1  0.85116500  0.09024000  0.02619600  1
  C  C185  1  0.60433500  0.85880400  0.70624700  1
  C  C186  1  0.31788200  0.96066000  0.65937400  1
  C  C187  1  0.97889400  0.38808200  0.41850500  1
