# generated using pymatgen
data_Cu(NiC4)3
_symmetry_space_group_name_H-M   'P 1'
_cell_length_a   5.13872600
_cell_length_b   5.92839440
_cell_length_c   10.26889340
_cell_angle_alpha   90.00376858
_cell_angle_beta   99.59056985
_cell_angle_gamma   106.77944173
_symmetry_Int_Tables_number   1
_chemical_formula_structural   Cu(NiC4)3
_chemical_formula_sum   'Cu2 Ni6 C24'
_cell_volume   294.94526900
_cell_formula_units_Z   2
loop_
 _symmetry_equiv_pos_site_id
 _symmetry_equiv_pos_as_xyz
  1  'x, y, z'
loop_
 _atom_site_type_symbol
 _atom_site_label
 _atom_site_symmetry_multiplicity
 _atom_site_fract_x
 _atom_site_fract_y
 _atom_site_fract_z
 _atom_site_occupancy
  C  C0  1  0.00003000  0.75015200  0.74986300  1
  C  C1  1  0.00047000  0.75024200  0.24996500  1
  C  C2  1  0.00000000  0.50000000  0.50000000  1
  C  C3  1  0.00000000  0.50000000  0.00000000  1
  C  C4  1  0.99953000  0.24975800  0.75003500  1
  C  C5  1  0.99997000  0.24984800  0.25013700  1
  C  C6  1  0.00000000  0.00000000  0.50000000  1
  C  C7  1  0.00000000  0.00000000  0.00000000  1
  Ni  Ni8  1  0.49998300  0.62481800  0.37482400  1
  Ni  Ni9  1  0.50001700  0.37518200  0.62517600  1
  Ni  Ni10  1  0.50006000  0.12514300  0.37482900  1
  Ni  Ni11  1  0.50019900  0.12521300  0.87522400  1
  Ni  Ni12  1  0.49994000  0.87485700  0.62517100  1
  Ni  Ni13  1  0.49980100  0.87478700  0.12477600  1
  Cu  Cu14  1  0.49999400  0.62482100  0.87510500  1
  Cu  Cu15  1  0.50000600  0.37517900  0.12489500  1
  C  C16  1  0.27381400  0.56841700  0.68969300  1
  C  C17  1  0.27420800  0.56817900  0.18934300  1
  C  C18  1  0.72487600  0.68147900  0.56038000  1
  C  C19  1  0.72633000  0.68082700  0.06033200  1
  C  C20  1  0.27512400  0.31852100  0.43962000  1
  C  C21  1  0.72618600  0.43158300  0.31030700  1
  C  C22  1  0.27367000  0.31917300  0.93966800  1
  C  C23  1  0.72579200  0.43182100  0.81065700  1
  C  C24  1  0.27535200  0.06879800  0.68977100  1
  C  C25  1  0.72469400  0.18110300  0.56029800  1
  C  C26  1  0.27444800  0.06890100  0.18937100  1
  C  C27  1  0.72559200  0.18157900  0.06066100  1
  C  C28  1  0.27530600  0.81889700  0.43970200  1
  C  C29  1  0.72464800  0.93120200  0.31022900  1
  C  C30  1  0.27440800  0.81842100  0.93933900  1
  C  C31  1  0.72555200  0.93109900  0.81062900  1
