# generated using pymatgen
data_Cu(Ni2C9)2
_symmetry_space_group_name_H-M   'P 1'
_cell_length_a   10.75180900
_cell_length_b   6.83469600
_cell_length_c   6.85833238
_cell_angle_alpha   81.86289041
_cell_angle_beta   90.00000000
_cell_angle_gamma   90.00000000
_symmetry_Int_Tables_number   1
_chemical_formula_structural   Cu(Ni2C9)2
_chemical_formula_sum   'Cu2 Ni8 C36'
_cell_volume   498.91288360
_cell_formula_units_Z   2
loop_
 _symmetry_equiv_pos_site_id
 _symmetry_equiv_pos_as_xyz
  1  'x, y, z'
loop_
 _atom_site_type_symbol
 _atom_site_label
 _atom_site_symmetry_multiplicity
 _atom_site_fract_x
 _atom_site_fract_y
 _atom_site_fract_z
 _atom_site_occupancy
  C  C0  1  0.25000000  0.77433200  0.16370100  1
  C  C1  1  0.75000000  0.22566800  0.83629900  1
  C  C2  1  0.02188900  0.90864200  0.20892600  1
  C  C3  1  0.52188900  0.09135800  0.79107400  1
  C  C4  1  0.97811100  0.09135800  0.79107400  1
  C  C5  1  0.47811100  0.90864200  0.20892600  1
  C  C6  1  0.01693600  0.76389800  0.03572000  1
  C  C7  1  0.51693600  0.23610200  0.96428000  1
  C  C8  1  0.98306400  0.23610200  0.96428000  1
  C  C9  1  0.48306400  0.76389800  0.03572000  1
  C  C10  1  0.01901500  0.66574900  0.27101300  1
  C  C11  1  0.51901500  0.33425100  0.72898700  1
  C  C12  1  0.98098500  0.33425100  0.72898700  1
  C  C13  1  0.48098500  0.66574900  0.27101300  1
  C  C14  1  0.32723700  0.61862500  0.84886200  1
  C  C15  1  0.82723700  0.38137500  0.15113800  1
  C  C16  1  0.67276300  0.38137500  0.15113800  1
  C  C17  1  0.17276300  0.61862500  0.84886200  1
  C  C18  1  0.25000000  0.44242600  0.98987600  1
  C  C19  1  0.75000000  0.55757400  0.01012400  1
  C  C20  1  0.32724500  0.01625000  0.41275000  1
  C  C21  1  0.82724500  0.98375000  0.58725000  1
  C  C22  1  0.67275500  0.98375000  0.58725000  1
  C  C23  1  0.17275500  0.01625000  0.41275000  1
  C  C24  1  0.25000000  0.82139400  0.52453500  1
  C  C25  1  0.75000000  0.17860600  0.47546500  1
  C  C26  1  0.32521900  0.44208600  0.37142800  1
  C  C27  1  0.82521900  0.55791400  0.62857200  1
  C  C28  1  0.67478100  0.55791400  0.62857200  1
  C  C29  1  0.17478100  0.44208600  0.37142800  1
  Ni  Ni30  1  0.05444000  0.77808800  0.17102800  1
  Ni  Ni31  1  0.55444000  0.22191200  0.82897200  1
  Ni  Ni32  1  0.94556000  0.22191200  0.82897200  1
  Ni  Ni33  1  0.44556000  0.77808800  0.17102800  1
  Ni  Ni34  1  0.25000000  0.59094000  0.93769500  1
  Ni  Ni35  1  0.75000000  0.40906000  0.06230500  1
  Ni  Ni36  1  0.25000000  0.92934500  0.40493000  1
  Ni  Ni37  1  0.75000000  0.07065500  0.59507000  1
  C  C38  1  0.25000000  0.05551800  0.93003300  1
  C  C39  1  0.75000000  0.94448200  0.06996700  1
  C  C40  1  0.97983700  0.71724600  0.68538900  1
  C  C41  1  0.47983700  0.28275400  0.31461100  1
  C  C42  1  0.02016300  0.28275400  0.31461100  1
  C  C43  1  0.52016300  0.71724600  0.68538900  1
  Cu  Cu44  1  0.25000000  0.52846200  0.37691400  1
  Cu  Cu45  1  0.75000000  0.47153800  0.62308600  1
