# generated using pymatgen
data_Cu3(Ni4C5)2
_symmetry_space_group_name_H-M   'P 1'
_cell_length_a   10.59768500
_cell_length_b   14.79054700
_cell_length_c   28.50039100
_cell_angle_alpha   90.00000000
_cell_angle_beta   90.00000000
_cell_angle_gamma   90.00000000
_symmetry_Int_Tables_number   1
_chemical_formula_structural   Cu3(Ni4C5)2
_chemical_formula_sum   'Cu24 Ni64 C80'
_cell_volume   4467.30969290
_cell_formula_units_Z   8
loop_
 _symmetry_equiv_pos_site_id
 _symmetry_equiv_pos_as_xyz
  1  'x, y, z'
loop_
 _atom_site_type_symbol
 _atom_site_label
 _atom_site_symmetry_multiplicity
 _atom_site_fract_x
 _atom_site_fract_y
 _atom_site_fract_z
 _atom_site_occupancy
  C  C0  1  0.88384800  0.21747000  0.88340600  1
  C  C1  1  0.38384800  0.78253000  0.11659400  1
  C  C2  1  0.38384800  0.71747000  0.61659400  1
  C  C3  1  0.88384800  0.28253000  0.38340600  1
  C  C4  1  0.77411500  0.15292700  0.85230900  1
  C  C5  1  0.27411500  0.84707300  0.14769100  1
  C  C6  1  0.27411500  0.65292700  0.64769100  1
  C  C7  1  0.77411500  0.34707300  0.35230900  1
  C  C8  1  0.26607700  0.07561400  0.67746800  1
  C  C9  1  0.76607700  0.92438600  0.32253200  1
  C  C10  1  0.76607700  0.57561400  0.82253200  1
  C  C11  1  0.26607700  0.42438600  0.17746800  1
  C  C12  1  0.18437600  0.14724000  0.59172400  1
  C  C13  1  0.68437600  0.85276000  0.40827600  1
  C  C14  1  0.68437600  0.64724000  0.90827600  1
  C  C15  1  0.18437600  0.35276000  0.09172400  1
  C  C16  1  0.48119400  0.10674200  0.75592700  1
  C  C17  1  0.98119400  0.89325800  0.24407300  1
  C  C18  1  0.98119400  0.60674200  0.74407300  1
  C  C19  1  0.48119400  0.39325800  0.25592700  1
  C  C20  1  0.99169500  0.21597700  0.52986700  1
  C  C21  1  0.49169500  0.78402300  0.47013300  1
  C  C22  1  0.49169500  0.71597700  0.97013300  1
  C  C23  1  0.99169500  0.28402300  0.02986700  1
  Ni  Ni24  1  0.94649000  0.09670300  0.85895500  1
  Ni  Ni25  1  0.44649000  0.90329700  0.14104500  1
  Ni  Ni26  1  0.44649000  0.59670300  0.64104500  1
  Ni  Ni27  1  0.94649000  0.40329700  0.35895500  1
  Ni  Ni28  1  0.36994600  0.11567500  0.86871700  1
  Ni  Ni29  1  0.86994600  0.88432500  0.13128300  1
  Ni  Ni30  1  0.86994600  0.61567500  0.63128300  1
  Ni  Ni31  1  0.36994600  0.38432500  0.36871700  1
  Ni  Ni32  1  0.30761400  0.17949400  0.88887300  1
  Ni  Ni33  1  0.80761400  0.82050600  0.11112700  1
  Ni  Ni34  1  0.80761400  0.67949400  0.61112700  1
  Ni  Ni35  1  0.30761400  0.32050600  0.38887300  1
  Ni  Ni36  1  0.03151200  0.03447800  0.85075700  1
  Ni  Ni37  1  0.53151200  0.96552200  0.14924300  1
  Ni  Ni38  1  0.53151200  0.53447800  0.64924300  1
  Ni  Ni39  1  0.03151200  0.46552200  0.35075700  1
  Ni  Ni40  1  0.65352700  0.83518400  0.75155400  1
  Ni  Ni41  1  0.15352700  0.16481600  0.24844600  1
  Ni  Ni42  1  0.15352700  0.33518400  0.74844600  1
  Ni  Ni43  1  0.65352700  0.66481600  0.25155400  1
  Ni  Ni44  1  0.66283100  0.91575600  0.73554200  1
  Ni  Ni45  1  0.16283100  0.08424400  0.26445800  1
  Ni  Ni46  1  0.16283100  0.41575600  0.76445800  1
  Ni  Ni47  1  0.66283100  0.58424400  0.23554200  1
  Ni  Ni48  1  0.62971200  0.29967900  0.71756800  1
  Ni  Ni49  1  0.12971200  0.70032100  0.28243200  1
  Ni  Ni50  1  0.12971200  0.79967900  0.78243200  1
  Ni  Ni51  1  0.62971200  0.20032100  0.21756800  1
  Ni  Ni52  1  0.70309400  0.30799500  0.68174300  1
  Ni  Ni53  1  0.20309400  0.69200500  0.31825700  1
  Ni  Ni54  1  0.20309400  0.80799500  0.81825700  1
  Ni  Ni55  1  0.70309400  0.19200500  0.18174300  1
  Ni  Ni56  1  0.05252500  0.05058800  0.68229200  1
  Ni  Ni57  1  0.55252500  0.94941200  0.31770800  1
  Ni  Ni58  1  0.55252500  0.55058800  0.81770800  1
  Ni  Ni59  1  0.05252500  0.44941200  0.18229200  1
  Ni  Ni60  1  0.09256500  0.07353700  0.44479900  1
  Ni  Ni61  1  0.59256500  0.92646300  0.55520100  1
  Ni  Ni62  1  0.59256500  0.57353700  0.05520100  1
  Ni  Ni63  1  0.09256500  0.42646300  0.94479900  1
  Ni  Ni64  1  0.20301900  0.05191500  0.42960500  1
  Ni  Ni65  1  0.70301900  0.94808500  0.57039500  1
  Ni  Ni66  1  0.70301900  0.55191500  0.07039500  1
  Ni  Ni67  1  0.20301900  0.44808500  0.92960500  1
  Ni  Ni68  1  0.11343200  0.97964400  0.65046400  1
  Ni  Ni69  1  0.61343200  0.02035600  0.34953600  1
  Ni  Ni70  1  0.61343200  0.47964400  0.84953600  1
  Ni  Ni71  1  0.11343200  0.52035600  0.15046400  1
  Ni  Ni72  1  0.26627700  0.42400600  0.54712700  1
  Ni  Ni73  1  0.76627700  0.57599400  0.45287300  1
  Ni  Ni74  1  0.76627700  0.92400600  0.95287300  1
  Ni  Ni75  1  0.26627700  0.07599400  0.04712700  1
  Ni  Ni76  1  0.15576600  0.41854200  0.52851300  1
  Ni  Ni77  1  0.65576600  0.58145800  0.47148700  1
  Ni  Ni78  1  0.65576600  0.91854200  0.97148700  1
  Ni  Ni79  1  0.15576600  0.08145800  0.02851300  1
  Ni  Ni80  1  0.58005300  0.20131200  0.53148800  1
  Ni  Ni81  1  0.08005300  0.79868800  0.46851200  1
  Ni  Ni82  1  0.08005300  0.70131200  0.96851200  1
  Ni  Ni83  1  0.58005300  0.29868800  0.03148800  1
  Ni  Ni84  1  0.67758800  0.25238300  0.53580500  1
  Ni  Ni85  1  0.17758800  0.74761700  0.46419500  1
  Ni  Ni86  1  0.17758800  0.75238300  0.96419500  1
  Ni  Ni87  1  0.67758800  0.24761700  0.03580500  1
  Cu  Cu88  1  0.48643800  0.09298300  0.83493500  1
  Cu  Cu89  1  0.98643800  0.90701700  0.16506500  1
  Cu  Cu90  1  0.98643800  0.59298300  0.66506500  1
  Cu  Cu91  1  0.48643800  0.40701700  0.33493500  1
  Cu  Cu92  1  0.66102800  0.02232000  0.74792000  1
  Cu  Cu93  1  0.16102800  0.97768000  0.25208000  1
  Cu  Cu94  1  0.16102800  0.52232000  0.75208000  1
  Cu  Cu95  1  0.66102800  0.47768000  0.24792000  1
  Cu  Cu96  1  0.59830900  0.23459900  0.76080300  1
  Cu  Cu97  1  0.09830900  0.76540100  0.23919700  1
  Cu  Cu98  1  0.09830900  0.73459900  0.73919700  1
  Cu  Cu99  1  0.59830900  0.26540100  0.26080300  1
  Cu  Cu100  1  0.98789000  0.14643700  0.45929500  1
  Cu  Cu101  1  0.48789000  0.85356300  0.54070500  1
  Cu  Cu102  1  0.48789000  0.64643700  0.04070500  1
  Cu  Cu103  1  0.98789000  0.35356300  0.95929500  1
  Cu  Cu104  1  0.09147300  0.34052700  0.49743000  1
  Cu  Cu105  1  0.59147300  0.65947300  0.50257000  1
  Cu  Cu106  1  0.59147300  0.84052700  0.00257000  1
  Cu  Cu107  1  0.09147300  0.15947300  0.99743000  1
  Cu  Cu108  1  0.81091400  0.28497500  0.51627300  1
  Cu  Cu109  1  0.31091400  0.71502500  0.48372700  1
  Cu  Cu110  1  0.31091400  0.78497500  0.98372700  1
  Cu  Cu111  1  0.81091400  0.21502500  0.01627300  1
  C  C112  1  0.86424200  0.15909500  0.86513500  1
  C  C113  1  0.36424200  0.84090500  0.13486500  1
  C  C114  1  0.36424200  0.65909500  0.63486500  1
  C  C115  1  0.86424200  0.34090500  0.36513500  1
  C  C116  1  0.17499600  0.04699100  0.67226000  1
  C  C117  1  0.67499600  0.95300900  0.32774000  1
  C  C118  1  0.67499600  0.54699100  0.82774000  1
  C  C119  1  0.17499600  0.45300900  0.17226000  1
  C  C120  1  0.45929600  0.11529700  0.67305000  1
  C  C121  1  0.95929600  0.88470300  0.32695000  1
  C  C122  1  0.95929600  0.61529700  0.82695000  1
  C  C123  1  0.45929600  0.38470300  0.17305000  1
  C  C124  1  0.36067500  0.97344700  0.75243800  1
  C  C125  1  0.86067500  0.02655300  0.24756200  1
  C  C126  1  0.86067500  0.47344700  0.74756200  1
  C  C127  1  0.36067500  0.52655300  0.25243800  1
  C  C128  1  0.29023300  0.18749200  0.76099300  1
  C  C129  1  0.79023300  0.81250800  0.23900700  1
  C  C130  1  0.79023300  0.68749200  0.73900700  1
  C  C131  1  0.29023300  0.31250800  0.26099300  1
  C  C132  1  0.01333000  0.27529500  0.60543900  1
  C  C133  1  0.51333000  0.72470500  0.39456100  1
  C  C134  1  0.51333000  0.77529500  0.89456100  1
  C  C135  1  0.01333000  0.22470500  0.10543900  1
  C  C136  1  0.20541600  0.14235200  0.54688900  1
  C  C137  1  0.70541600  0.85764800  0.45311100  1
  C  C138  1  0.70541600  0.64235200  0.95311100  1
  C  C139  1  0.20541600  0.35764800  0.04688900  1
  C  C140  1  0.89770300  0.08851300  0.56381400  1
  C  C141  1  0.39770300  0.91148700  0.43618600  1
  C  C142  1  0.39770300  0.58851300  0.93618600  1
  C  C143  1  0.89770300  0.41148700  0.06381400  1
  C  C144  1  0.60343300  0.06554200  0.85868600  1
  C  C145  1  0.10343300  0.93445800  0.14131400  1
  C  C146  1  0.10343300  0.56554200  0.64131400  1
  C  C147  1  0.60343300  0.43445800  0.35868600  1
  C  C148  1  0.78364600  0.06062800  0.76100400  1
  C  C149  1  0.28364600  0.93937200  0.23899600  1
  C  C150  1  0.28364600  0.56062800  0.73899600  1
  C  C151  1  0.78364600  0.43937200  0.26100400  1
  C  C152  1  0.66001500  0.25689900  0.80557800  1
  C  C153  1  0.16001500  0.74310100  0.19442200  1
  C  C154  1  0.16001500  0.75689900  0.69442200  1
  C  C155  1  0.66001500  0.24310100  0.30557800  1
  C  C156  1  0.89359500  0.16963800  0.42329200  1
  C  C157  1  0.39359500  0.83036200  0.57670800  1
  C  C158  1  0.39359500  0.66963800  0.07670800  1
  C  C159  1  0.89359500  0.33036200  0.92329200  1
  C  C160  1  0.10433000  0.34763100  0.44643300  1
  C  C161  1  0.60433000  0.65236900  0.55356700  1
  C  C162  1  0.60433000  0.84763100  0.05356700  1
  C  C163  1  0.10433000  0.15236900  0.94643300  1
  C  C164  1  0.80958300  0.36296700  0.48471000  1
  C  C165  1  0.30958300  0.63703300  0.51529000  1
  C  C166  1  0.30958300  0.86296700  0.01529000  1
  C  C167  1  0.80958300  0.13703300  0.98471000  1
