# generated using pymatgen
data_CuNiC13
_symmetry_space_group_name_H-M   'P 1'
_cell_length_a   17.55642400
_cell_length_b   7.22662800
_cell_length_c   9.77586387
_cell_angle_alpha   50.26604196
_cell_angle_beta   90.00000000
_cell_angle_gamma   90.00000000
_symmetry_Int_Tables_number   1
_chemical_formula_structural   CuNiC13
_chemical_formula_sum   'Cu4 Ni4 C52'
_cell_volume   953.81689767
_cell_formula_units_Z   4
loop_
 _symmetry_equiv_pos_site_id
 _symmetry_equiv_pos_as_xyz
  1  'x, y, z'
loop_
 _atom_site_type_symbol
 _atom_site_label
 _atom_site_symmetry_multiplicity
 _atom_site_fract_x
 _atom_site_fract_y
 _atom_site_fract_z
 _atom_site_occupancy
  Ni  Ni0  1  0.75544400  0.89322400  0.61129900  1
  Ni  Ni1  1  0.74455600  0.89322400  0.11129900  1
  Ni  Ni2  1  0.24455600  0.10677600  0.38870100  1
  Ni  Ni3  1  0.25544400  0.10677600  0.88870100  1
  Cu  Cu4  1  0.95452100  0.07393300  0.77209700  1
  Cu  Cu5  1  0.54547900  0.07393300  0.27209700  1
  Cu  Cu6  1  0.04547900  0.92606700  0.22790300  1
  Cu  Cu7  1  0.45452100  0.92606700  0.72790300  1
  C  C8  1  0.60727600  0.46225200  0.73863600  1
  C  C9  1  0.89272400  0.46225200  0.23863600  1
  C  C10  1  0.39272400  0.53774800  0.26136400  1
  C  C11  1  0.10727600  0.53774800  0.76136400  1
  C  C12  1  0.75216900  0.38225400  0.62241300  1
  C  C13  1  0.74783100  0.38225400  0.12241300  1
  C  C14  1  0.24783100  0.61774600  0.37758700  1
  C  C15  1  0.25216900  0.61774600  0.87758700  1
  C  C16  1  0.89491800  0.42373200  0.96143400  1
  C  C17  1  0.60508200  0.42373200  0.46143400  1
  C  C18  1  0.10508200  0.57626800  0.03856600  1
  C  C19  1  0.39491800  0.57626800  0.53856600  1
  C  C20  1  0.69608900  0.37584300  0.75982600  1
  C  C21  1  0.80391100  0.37584300  0.25982600  1
  C  C22  1  0.30391100  0.62415700  0.24017400  1
  C  C23  1  0.19608900  0.62415700  0.74017400  1
  C  C24  1  0.57057500  0.36467500  0.64164200  1
  C  C25  1  0.92942500  0.36467500  0.14164200  1
  C  C26  1  0.42942500  0.63532500  0.35835800  1
  C  C27  1  0.07057500  0.63532500  0.85835800  1
  C  C28  1  0.69223500  0.32422600  0.52613900  1
  C  C29  1  0.80776500  0.32422600  0.02613900  1
  C  C30  1  0.30776500  0.67577400  0.47386100  1
  C  C31  1  0.19223500  0.67577400  0.97386100  1
  C  C32  1  0.57392500  0.31042900  0.92222900  1
  C  C33  1  0.92607500  0.31042900  0.42222900  1
  C  C34  1  0.42607500  0.68957100  0.07777100  1
  C  C35  1  0.07392500  0.68957100  0.57777100  1
  C  C36  1  0.60443100  0.73097500  0.61948200  1
  C  C37  1  0.89556900  0.73097500  0.11948200  1
  C  C38  1  0.39556900  0.26902500  0.38051800  1
  C  C39  1  0.10443100  0.26902500  0.88051800  1
  C  C40  1  0.78497600  0.63115200  0.48833100  1
  C  C41  1  0.71502400  0.63115200  0.98833100  1
  C  C42  1  0.21502400  0.36884800  0.51166900  1
  C  C43  1  0.28497600  0.36884800  0.01166900  1
  C  C44  1  0.80264900  0.16685000  0.73460600  1
  C  C45  1  0.69735100  0.16685000  0.23460600  1
  C  C46  1  0.19735100  0.83315000  0.26539400  1
  C  C47  1  0.30264900  0.83315000  0.76539400  1
  C  C48  1  0.93512300  0.25432700  0.94763300  1
  C  C49  1  0.56487700  0.25432700  0.44763300  1
  C  C50  1  0.06487700  0.74567300  0.05236700  1
  C  C51  1  0.43512300  0.74567300  0.55236700  1
  C  C52  1  0.60771400  0.68950300  0.31147800  1
  C  C53  1  0.89228600  0.68950300  0.81147800  1
  C  C54  1  0.39228600  0.31049700  0.68852200  1
  C  C55  1  0.10771400  0.31049700  0.18852200  1
  C  C56  1  0.07681000  0.41090600  0.50578500  1
  C  C57  1  0.42319000  0.41090600  0.00578500  1
  C  C58  1  0.92319000  0.58909400  0.49421500  1
  C  C59  1  0.57681000  0.58909400  0.99421500  1
