# generated using pymatgen
data_Cu2NiC4
_symmetry_space_group_name_H-M   'P 1'
_cell_length_a   5.81721756
_cell_length_b   5.81721756
_cell_length_c   11.31706800
_cell_angle_alpha   90.00000000
_cell_angle_beta   90.00000000
_cell_angle_gamma   146.20075983
_symmetry_Int_Tables_number   1
_chemical_formula_structural   Cu2NiC4
_chemical_formula_sum   'Cu4 Ni2 C8'
_cell_volume   213.04020560
_cell_formula_units_Z   2
loop_
 _symmetry_equiv_pos_site_id
 _symmetry_equiv_pos_as_xyz
  1  'x, y, z'
loop_
 _atom_site_type_symbol
 _atom_site_label
 _atom_site_symmetry_multiplicity
 _atom_site_fract_x
 _atom_site_fract_y
 _atom_site_fract_z
 _atom_site_occupancy
  Ni  Ni0  1  0.88965100  0.11034900  0.25000000  1
  Ni  Ni1  1  0.11034900  0.88965100  0.75000000  1
  Cu  Cu2  1  0.63568400  0.36431600  0.43004600  1
  Cu  Cu3  1  0.63568400  0.36431600  0.06995400  1
  Cu  Cu4  1  0.36431600  0.63568400  0.56995400  1
  Cu  Cu5  1  0.36431600  0.63568400  0.93004600  1
  C  C6  1  0.00000000  0.00000000  0.00000000  1
  C  C7  1  0.00000000  0.00000000  0.50000000  1
  C  C8  1  0.56938300  0.43061700  0.25000000  1
  C  C9  1  0.74044500  0.25955500  0.60014200  1
  C  C10  1  0.74044500  0.25955500  0.89985800  1
  C  C11  1  0.43061700  0.56938300  0.75000000  1
  C  C12  1  0.25955500  0.74044500  0.39985800  1
  C  C13  1  0.25955500  0.74044500  0.10014200  1
