# generated using pymatgen
data_Cu5NiC8
_symmetry_space_group_name_H-M   'P 1'
_cell_length_a   6.58525500
_cell_length_b   10.38825700
_cell_length_c   17.08741900
_cell_angle_alpha   90.00000000
_cell_angle_beta   90.00000000
_cell_angle_gamma   90.00000000
_symmetry_Int_Tables_number   1
_chemical_formula_structural   Cu5NiC8
_chemical_formula_sum   'Cu40 Ni8 C64'
_cell_volume   1168.93873742
_cell_formula_units_Z   8
loop_
 _symmetry_equiv_pos_site_id
 _symmetry_equiv_pos_as_xyz
  1  'x, y, z'
loop_
 _atom_site_type_symbol
 _atom_site_label
 _atom_site_symmetry_multiplicity
 _atom_site_fract_x
 _atom_site_fract_y
 _atom_site_fract_z
 _atom_site_occupancy
  C  C0  1  0.32716400  0.76768000  0.27065500  1
  C  C1  1  0.67283600  0.73232000  0.77065500  1
  C  C2  1  0.17283600  0.26768000  0.72934500  1
  C  C3  1  0.82716400  0.23232000  0.22934500  1
  C  C4  1  0.67283600  0.23232000  0.72934500  1
  C  C5  1  0.32716400  0.26768000  0.22934500  1
  C  C6  1  0.82716400  0.73232000  0.27065500  1
  C  C7  1  0.17283600  0.76768000  0.77065500  1
  C  C8  1  0.14243600  0.84751000  0.49944400  1
  C  C9  1  0.85756400  0.65249000  0.99944400  1
  C  C10  1  0.35756400  0.34751000  0.50055600  1
  C  C11  1  0.64243600  0.15249000  0.00055600  1
  C  C12  1  0.85756400  0.15249000  0.50055600  1
  C  C13  1  0.14243600  0.34751000  0.00055600  1
  C  C14  1  0.64243600  0.65249000  0.49944400  1
  C  C15  1  0.35756400  0.84751000  0.99944400  1
  Ni  Ni16  1  0.12097900  0.51795300  0.16155700  1
  Ni  Ni17  1  0.87902100  0.98204700  0.66155700  1
  Ni  Ni18  1  0.37902100  0.01795300  0.83844300  1
  Ni  Ni19  1  0.62097900  0.48204700  0.33844300  1
  Ni  Ni20  1  0.87902100  0.48204700  0.83844300  1
  Ni  Ni21  1  0.12097900  0.01795300  0.33844300  1
  Ni  Ni22  1  0.62097900  0.98204700  0.16155700  1
  Ni  Ni23  1  0.37902100  0.51795300  0.66155700  1
  Cu  Cu24  1  0.97662500  0.89272200  0.08685900  1
  Cu  Cu25  1  0.02337500  0.60727800  0.58685900  1
  Cu  Cu26  1  0.52337500  0.39272200  0.91314100  1
  Cu  Cu27  1  0.47662500  0.10727800  0.41314100  1
  Cu  Cu28  1  0.02337500  0.10727800  0.91314100  1
  Cu  Cu29  1  0.97662500  0.39272200  0.41314100  1
  Cu  Cu30  1  0.47662500  0.60727800  0.08685900  1
  Cu  Cu31  1  0.52337500  0.89272200  0.58685900  1
  Cu  Cu32  1  0.07234700  0.76109500  0.11382700  1
  Cu  Cu33  1  0.92765300  0.73890500  0.61382700  1
  Cu  Cu34  1  0.42765300  0.26109500  0.88617300  1
  Cu  Cu35  1  0.57234700  0.23890500  0.38617300  1
  Cu  Cu36  1  0.92765300  0.23890500  0.88617300  1
  Cu  Cu37  1  0.07234700  0.26109500  0.38617300  1
  Cu  Cu38  1  0.57234700  0.73890500  0.11382700  1
  Cu  Cu39  1  0.42765300  0.76109500  0.61382700  1
  Cu  Cu40  1  0.29281100  0.61374800  0.40146400  1
  Cu  Cu41  1  0.70718900  0.88625200  0.90146400  1
  Cu  Cu42  1  0.20718900  0.11374800  0.59853600  1
  Cu  Cu43  1  0.79281100  0.38625200  0.09853600  1
  Cu  Cu44  1  0.70718900  0.38625200  0.59853600  1
  Cu  Cu45  1  0.29281100  0.11374800  0.09853600  1
  Cu  Cu46  1  0.79281100  0.88625200  0.40146400  1
  Cu  Cu47  1  0.20718900  0.61374800  0.90146400  1
  Cu  Cu48  1  0.05767700  0.62720500  0.38813900  1
  Cu  Cu49  1  0.94232300  0.87279500  0.88813900  1
  Cu  Cu50  1  0.44232300  0.12720500  0.61186100  1
  Cu  Cu51  1  0.55767700  0.37279500  0.11186100  1
  Cu  Cu52  1  0.94232300  0.37279500  0.61186100  1
  Cu  Cu53  1  0.05767700  0.12720500  0.11186100  1
  Cu  Cu54  1  0.55767700  0.87279500  0.38813900  1
  Cu  Cu55  1  0.44232300  0.62720500  0.88813900  1
  Cu  Cu56  1  0.97630200  0.46479000  0.27836100  1
  Cu  Cu57  1  0.02369800  0.03521000  0.77836100  1
  Cu  Cu58  1  0.52369800  0.96479000  0.72163900  1
  Cu  Cu59  1  0.47630200  0.53521000  0.22163900  1
  Cu  Cu60  1  0.02369800  0.53521000  0.72163900  1
  Cu  Cu61  1  0.97630200  0.96479000  0.22163900  1
  Cu  Cu62  1  0.47630200  0.03521000  0.27836100  1
  Cu  Cu63  1  0.52369800  0.46479000  0.77836100  1
  C  C64  1  0.34835200  0.48148300  0.14906900  1
  C  C65  1  0.65164800  0.01851700  0.64906900  1
  C  C66  1  0.15164800  0.98148300  0.85093100  1
  C  C67  1  0.84835200  0.51851700  0.35093100  1
  C  C68  1  0.65164800  0.51851700  0.85093100  1
  C  C69  1  0.34835200  0.98148300  0.35093100  1
  C  C70  1  0.84835200  0.01851700  0.14906900  1
  C  C71  1  0.15164800  0.48148300  0.64906900  1
  C  C72  1  0.09606800  0.65701600  0.19063500  1
  C  C73  1  0.90393200  0.84298400  0.69063500  1
  C  C74  1  0.40393200  0.15701600  0.80936500  1
  C  C75  1  0.59606800  0.34298400  0.30936500  1
  C  C76  1  0.90393200  0.34298400  0.80936500  1
  C  C77  1  0.09606800  0.15701600  0.30936500  1
  C  C78  1  0.59606800  0.84298400  0.19063500  1
  C  C79  1  0.40393200  0.65701600  0.69063500  1
  C  C80  1  0.99434300  0.48707600  0.08899200  1
  C  C81  1  0.00565700  0.01292400  0.58899200  1
  C  C82  1  0.50565700  0.98707600  0.91100800  1
  C  C83  1  0.49434300  0.51292400  0.41100800  1
  C  C84  1  0.00565700  0.51292400  0.91100800  1
  C  C85  1  0.99434300  0.98707600  0.41100800  1
  C  C86  1  0.49434300  0.01292400  0.08899200  1
  C  C87  1  0.50565700  0.48707600  0.58899200  1
  C  C88  1  0.04835100  0.42224500  0.23175200  1
  C  C89  1  0.95164900  0.07775500  0.73175200  1
  C  C90  1  0.45164900  0.92224500  0.76824800  1
  C  C91  1  0.54835100  0.57775500  0.26824800  1
  C  C92  1  0.95164900  0.57775500  0.76824800  1
  C  C93  1  0.04835100  0.92224500  0.26824800  1
  C  C94  1  0.54835100  0.07775500  0.23175200  1
  C  C95  1  0.45164900  0.42224500  0.73175200  1
  C  C96  1  0.04664700  0.81568800  0.06642600  1
  C  C97  1  0.95335300  0.68431200  0.56642600  1
  C  C98  1  0.45335300  0.31568800  0.93357400  1
  C  C99  1  0.54664700  0.18431200  0.43357400  1
  C  C100  1  0.95335300  0.18431200  0.93357400  1
  C  C101  1  0.04664700  0.31568800  0.43357400  1
  C  C102  1  0.54664700  0.68431200  0.06642600  1
  C  C103  1  0.45335300  0.81568800  0.56642600  1
  C  C104  1  0.18196600  0.67905700  0.39466600  1
  C  C105  1  0.81803400  0.82094300  0.89466600  1
  C  C106  1  0.31803400  0.17905700  0.60533400  1
  C  C107  1  0.68196600  0.32094300  0.10533400  1
  C  C108  1  0.81803400  0.32094300  0.60533400  1
  C  C109  1  0.18196600  0.17905700  0.10533400  1
  C  C110  1  0.68196600  0.82094300  0.39466600  1
  C  C111  1  0.31803400  0.67905700  0.89466600  1
