# generated using pymatgen
data_Cu3NiC
_symmetry_space_group_name_H-M   'P 1'
_cell_length_a   6.01877394
_cell_length_b   6.01877394
_cell_length_c   9.58374200
_cell_angle_alpha   90.00000000
_cell_angle_beta   90.00000000
_cell_angle_gamma   107.21502262
_symmetry_Int_Tables_number   1
_chemical_formula_structural   Cu3NiC
_chemical_formula_sum   'Cu18 Ni6 C6'
_cell_volume   331.62392310
_cell_formula_units_Z   6
loop_
 _symmetry_equiv_pos_site_id
 _symmetry_equiv_pos_as_xyz
  1  'x, y, z'
loop_
 _atom_site_type_symbol
 _atom_site_label
 _atom_site_symmetry_multiplicity
 _atom_site_fract_x
 _atom_site_fract_y
 _atom_site_fract_z
 _atom_site_occupancy
  C  C0  1  0.08284700  0.08284700  0.00000000  1
  C  C1  1  0.19265000  0.85203600  0.25000000  1
  C  C2  1  0.08284700  0.08284700  0.50000000  1
  C  C3  1  0.85203600  0.19265000  0.75000000  1
  C  C4  1  0.79871300  0.29549000  0.25000000  1
  C  C5  1  0.29549000  0.79871300  0.75000000  1
  Ni  Ni6  1  0.10801000  0.56944800  0.01917500  1
  Ni  Ni7  1  0.68961400  0.78490900  0.25000000  1
  Ni  Ni8  1  0.10801000  0.56944800  0.48082500  1
  Ni  Ni9  1  0.56944800  0.10801000  0.51917500  1
  Ni  Ni10  1  0.78490900  0.68961400  0.75000000  1
  Ni  Ni11  1  0.56944800  0.10801000  0.98082500  1
  Cu  Cu12  1  0.08109000  0.76062800  0.06108400  1
  Cu  Cu13  1  0.05223000  0.38529300  0.10001300  1
  Cu  Cu14  1  0.54562200  0.19212400  0.10313500  1
  Cu  Cu15  1  0.76581300  0.60463600  0.25000000  1
  Cu  Cu16  1  0.47483100  0.75491700  0.25000000  1
  Cu  Cu17  1  0.85180600  0.98552000  0.25000000  1
  Cu  Cu18  1  0.54562200  0.19212400  0.39686500  1
  Cu  Cu19  1  0.05223000  0.38529300  0.39998700  1
  Cu  Cu20  1  0.08109000  0.76062800  0.43891600  1
  Cu  Cu21  1  0.76062800  0.08109000  0.56108400  1
  Cu  Cu22  1  0.38529300  0.05223000  0.60001300  1
  Cu  Cu23  1  0.19212400  0.54562200  0.60313500  1
  Cu  Cu24  1  0.75491700  0.47483100  0.75000000  1
  Cu  Cu25  1  0.98552000  0.85180600  0.75000000  1
  Cu  Cu26  1  0.60463600  0.76581300  0.75000000  1
  Cu  Cu27  1  0.19212400  0.54562200  0.89686500  1
  Cu  Cu28  1  0.38529300  0.05223000  0.89998700  1
  Cu  Cu29  1  0.76062800  0.08109000  0.93891600  1
