# generated using pymatgen
data_Cu3Ni6C83
_symmetry_space_group_name_H-M   'P 1'
_cell_length_a   12.35774419
_cell_length_b   12.35774419
_cell_length_c   12.35774403
_cell_angle_alpha   45.72092403
_cell_angle_beta   45.72092403
_cell_angle_gamma   45.72092896
_symmetry_Int_Tables_number   1
_chemical_formula_structural   Cu3Ni6C83
_chemical_formula_sum   'Cu3 Ni6 C83'
_cell_volume   881.80899902
_cell_formula_units_Z   1
loop_
 _symmetry_equiv_pos_site_id
 _symmetry_equiv_pos_as_xyz
  1  'x, y, z'
loop_
 _atom_site_type_symbol
 _atom_site_label
 _atom_site_symmetry_multiplicity
 _atom_site_fract_x
 _atom_site_fract_y
 _atom_site_fract_z
 _atom_site_occupancy
  C  C0  1  0.00000000  0.00000000  0.00000000  1
  Ni  Ni1  1  0.16611000  0.49634900  0.83380100  1
  Ni  Ni2  1  0.83380100  0.16611000  0.49634900  1
  Ni  Ni3  1  0.49634900  0.83380100  0.16611000  1
  Ni  Ni4  1  0.83389000  0.50365100  0.16619900  1
  Ni  Ni5  1  0.16619900  0.83389000  0.50365100  1
  Ni  Ni6  1  0.50365100  0.16619900  0.83389000  1
  Cu  Cu7  1  0.83596000  0.83596000  0.83596000  1
  Cu  Cu8  1  0.16404000  0.16404000  0.16404000  1
  Cu  Cu9  1  0.50000000  0.50000000  0.50000000  1
  C  C10  1  0.03997500  0.32625900  0.31013600  1
  C  C11  1  0.31013600  0.03997500  0.32625900  1
  C  C12  1  0.32625900  0.31013600  0.03997500  1
  C  C13  1  0.96002500  0.67374100  0.68986400  1
  C  C14  1  0.68986400  0.96002500  0.67374100  1
  C  C15  1  0.67374100  0.68986400  0.96002500  1
  C  C16  1  0.00780400  0.97908400  0.69940900  1
  C  C17  1  0.69940900  0.00780400  0.97908400  1
  C  C18  1  0.97908400  0.69940900  0.00780400  1
  C  C19  1  0.99219600  0.02091600  0.30059100  1
  C  C20  1  0.30059100  0.99219600  0.02091600  1
  C  C21  1  0.02091600  0.30059100  0.99219600  1
  C  C22  1  0.36267700  0.62655100  0.68983500  1
  C  C23  1  0.68983500  0.36267700  0.62655100  1
  C  C24  1  0.62655100  0.68983500  0.36267700  1
  C  C25  1  0.63732300  0.37344900  0.31016500  1
  C  C26  1  0.31016500  0.63732300  0.37344900  1
  C  C27  1  0.37344900  0.31016500  0.63732300  1
  C  C28  1  0.47008800  0.63800900  0.78431300  1
  C  C29  1  0.78431300  0.47008800  0.63800900  1
  C  C30  1  0.63800900  0.78431300  0.47008800  1
  C  C31  1  0.52991200  0.36199100  0.21568700  1
  C  C32  1  0.21568700  0.52991200  0.36199100  1
  C  C33  1  0.36199100  0.21568700  0.52991200  1
  C  C34  1  0.34872100  0.54967300  0.93960300  1
  C  C35  1  0.93960300  0.34872100  0.54967300  1
  C  C36  1  0.54967300  0.93960300  0.34872100  1
  C  C37  1  0.65127900  0.45032700  0.06039700  1
  C  C38  1  0.06039700  0.65127900  0.45032700  1
  C  C39  1  0.45032700  0.06039700  0.65127900  1
  C  C40  1  0.20932400  0.85395400  0.77732000  1
  C  C41  1  0.77732000  0.20932400  0.85395400  1
  C  C42  1  0.85395400  0.77732000  0.20932400  1
  C  C43  1  0.79067600  0.14604600  0.22268000  1
  C  C44  1  0.22268000  0.79067600  0.14604600  1
  C  C45  1  0.14604600  0.22268000  0.79067600  1
  C  C46  1  0.19933400  0.02986400  0.63172700  1
  C  C47  1  0.63172700  0.19933400  0.02986400  1
  C  C48  1  0.02986400  0.63172700  0.19933400  1
  C  C49  1  0.80066600  0.97013600  0.36827300  1
  C  C50  1  0.36827300  0.80066600  0.97013600  1
  C  C51  1  0.97013600  0.36827300  0.80066600  1
  C  C52  1  0.29532600  0.29532600  0.29532600  1
  C  C53  1  0.70467400  0.70467400  0.70467400  1
  C  C54  1  0.65935300  0.65935300  0.65935300  1
  C  C55  1  0.34064700  0.34064700  0.34064700  1
  C  C56  1  0.11395300  0.39231300  0.33516500  1
  C  C57  1  0.33516500  0.11395300  0.39231300  1
  C  C58  1  0.39231300  0.33516500  0.11395300  1
  C  C59  1  0.88604700  0.60768700  0.66483500  1
  C  C60  1  0.66483500  0.88604700  0.60768700  1
  C  C61  1  0.60768700  0.66483500  0.88604700  1
  C  C62  1  0.00072300  0.29503300  0.29213900  1
  C  C63  1  0.29213900  0.00072300  0.29503300  1
  C  C64  1  0.29503300  0.29213900  0.00072300  1
  C  C65  1  0.99927700  0.70496700  0.70786100  1
  C  C66  1  0.70786100  0.99927700  0.70496700  1
  C  C67  1  0.70496700  0.70786100  0.99927700  1
  C  C68  1  0.96516200  0.96465500  0.66780000  1
  C  C69  1  0.66780000  0.96516200  0.96465500  1
  C  C70  1  0.96465500  0.66780000  0.96516200  1
  C  C71  1  0.03483800  0.03534500  0.33220000  1
  C  C72  1  0.33220000  0.03483800  0.03534500  1
  C  C73  1  0.03534500  0.33220000  0.03483800  1
  C  C74  1  0.33408000  0.62144700  0.63670900  1
  C  C75  1  0.63670900  0.33408000  0.62144700  1
  C  C76  1  0.62144700  0.63670900  0.33408000  1
  C  C77  1  0.66592000  0.37855300  0.36329100  1
  C  C78  1  0.36329100  0.66592000  0.37855300  1
  C  C79  1  0.37855300  0.36329100  0.66592000  1
  C  C80  1  0.36398700  0.64091400  0.82828100  1
  C  C81  1  0.82828100  0.36398700  0.64091400  1
  C  C82  1  0.64091400  0.82828100  0.36398700  1
  C  C83  1  0.63601300  0.35908600  0.17171900  1
  C  C84  1  0.17171900  0.63601300  0.35908600  1
  C  C85  1  0.35908600  0.17171900  0.63601300  1
  C  C86  1  0.13114200  0.97253800  0.74413100  1
  C  C87  1  0.74413100  0.13114200  0.97253800  1
  C  C88  1  0.97253800  0.74413100  0.13114200  1
  C  C89  1  0.86885800  0.02746200  0.25586900  1
  C  C90  1  0.25586900  0.86885800  0.02746200  1
  C  C91  1  0.02746200  0.25586900  0.86885800  1
