# generated using pymatgen
data_Cu5Ni3C20
_symmetry_space_group_name_H-M   'P 1'
_cell_length_a   5.76613400
_cell_length_b   5.81468267
_cell_length_c   9.44274826
_cell_angle_alpha   90.95006339
_cell_angle_beta   89.73303230
_cell_angle_gamma   119.70001213
_symmetry_Int_Tables_number   1
_chemical_formula_structural   Cu5Ni3C20
_chemical_formula_sum   'Cu5 Ni3 C20'
_cell_volume   274.96748538
_cell_formula_units_Z   1
loop_
 _symmetry_equiv_pos_site_id
 _symmetry_equiv_pos_as_xyz
  1  'x, y, z'
loop_
 _atom_site_type_symbol
 _atom_site_label
 _atom_site_symmetry_multiplicity
 _atom_site_fract_x
 _atom_site_fract_y
 _atom_site_fract_z
 _atom_site_occupancy
  C  C0  1  0.34680000  0.67183700  0.10873000  1
  C  C1  1  0.98123800  0.99173400  0.00424700  1
  C  C2  1  0.98485600  0.99360600  0.50240000  1
  C  C3  1  0.67596300  0.33728300  0.60446500  1
  Ni  Ni4  1  0.17246300  0.34107200  0.78650100  1
  Ni  Ni5  1  0.16892900  0.83541900  0.78968900  1
  Ni  Ni6  1  0.33915300  0.17116800  0.28495400  1
  Cu  Cu7  1  0.32129200  0.66114200  0.50950800  1
  Cu  Cu8  1  0.65942600  0.83101300  0.78325100  1
  Cu  Cu9  1  0.67196000  0.32721000  0.01248000  1
  Cu  Cu10  1  0.82964600  0.16929600  0.28551300  1
  Cu  Cu11  1  0.83332200  0.66323400  0.28735800  1
  C  C12  1  0.14805200  0.32088400  0.40138200  1
  C  C13  1  0.04124000  0.52847700  0.66301000  1
  C  C14  1  0.34993100  0.67918700  0.89488600  1
  C  C15  1  0.98735400  0.99303300  0.68927800  1
  C  C16  1  0.98494100  0.99311900  0.19202400  1
  C  C17  1  0.15143700  0.82892600  0.39700900  1
  C  C18  1  0.49460500  0.53260900  0.66020800  1
  C  C19  1  0.48335000  0.96444100  0.66647700  1
  C  C20  1  0.32198400  0.15342100  0.90086000  1
  C  C21  1  0.66741300  0.82981500  0.39087300  1
  C  C22  1  0.53479000  0.03802300  0.16437400  1
  C  C23  1  0.53518600  0.48848700  0.16095100  1
  C  C24  1  0.68325800  0.34117700  0.38974300  1
  C  C25  1  0.82543100  0.15830100  0.89986100  1
  C  C26  1  0.96787300  0.48206300  0.16995200  1
  C  C27  1  0.83810700  0.67372200  0.89217300  1
