# generated using pymatgen
data_Cu4Ni3C2
_symmetry_space_group_name_H-M   'P 1'
_cell_length_a   9.29857510
_cell_length_b   9.29857510
_cell_length_c   14.09534700
_cell_angle_alpha   90.00000000
_cell_angle_beta   90.00000000
_cell_angle_gamma   119.99999362
_symmetry_Int_Tables_number   1
_chemical_formula_structural   Cu4Ni3C2
_chemical_formula_sum   'Cu32 Ni24 C16'
_cell_volume   1055.45382414
_cell_formula_units_Z   8
loop_
 _symmetry_equiv_pos_site_id
 _symmetry_equiv_pos_as_xyz
  1  'x, y, z'
loop_
 _atom_site_type_symbol
 _atom_site_label
 _atom_site_symmetry_multiplicity
 _atom_site_fract_x
 _atom_site_fract_y
 _atom_site_fract_z
 _atom_site_occupancy
  C  C0  1  0.66666700  0.33333300  0.89037800  1
  C  C1  1  0.33333300  0.66666700  0.10962200  1
  C  C2  1  0.84882700  0.29793100  0.70156600  1
  C  C3  1  0.44910400  0.15117300  0.70156600  1
  C  C4  1  0.70206900  0.55089600  0.70156600  1
  C  C5  1  0.15117300  0.70206900  0.29843400  1
  C  C6  1  0.55089600  0.84882700  0.29843400  1
  C  C7  1  0.29793100  0.44910400  0.29843400  1
  C  C8  1  0.63309500  0.05796700  0.81108600  1
  C  C9  1  0.42487200  0.36690500  0.81108600  1
  C  C10  1  0.94203300  0.57512800  0.81108600  1
  C  C11  1  0.36690500  0.94203300  0.18891400  1
  C  C12  1  0.57512800  0.63309500  0.18891400  1
  C  C13  1  0.05796700  0.42487200  0.18891400  1
  C  C14  1  0.66666700  0.33333300  0.56645500  1
  C  C15  1  0.33333300  0.66666700  0.43354500  1
  Ni  Ni16  1  0.81371600  0.31243900  0.96720200  1
  Ni  Ni17  1  0.49872300  0.18628400  0.96720200  1
  Ni  Ni18  1  0.68756100  0.50127700  0.96720200  1
  Ni  Ni19  1  0.18628400  0.68756100  0.03279800  1
  Ni  Ni20  1  0.50127700  0.81371600  0.03279800  1
  Ni  Ni21  1  0.31243900  0.49872300  0.03279800  1
  Ni  Ni22  1  0.00138100  0.27355700  0.77068900  1
  Ni  Ni23  1  0.27217500  0.99861900  0.77068900  1
  Ni  Ni24  1  0.72644300  0.72782500  0.77068900  1
  Ni  Ni25  1  0.99861900  0.72644300  0.22931100  1
  Ni  Ni26  1  0.72782500  0.00138100  0.22931100  1
  Ni  Ni27  1  0.27355700  0.27217500  0.22931100  1
  Ni  Ni28  1  0.81582700  0.11841100  0.63052400  1
  Ni  Ni29  1  0.30258500  0.18417300  0.63052400  1
  Ni  Ni30  1  0.88158900  0.69741500  0.63052400  1
  Ni  Ni31  1  0.18417300  0.88158900  0.36947600  1
  Ni  Ni32  1  0.69741500  0.81582700  0.36947600  1
  Ni  Ni33  1  0.11841100  0.30258500  0.36947600  1
  Ni  Ni34  1  0.01924600  0.43368300  0.62257000  1
  Ni  Ni35  1  0.41443700  0.98075400  0.62257000  1
  Ni  Ni36  1  0.56631700  0.58556300  0.62257000  1
  Ni  Ni37  1  0.98075400  0.56631700  0.37743000  1
  Ni  Ni38  1  0.58556300  0.01924600  0.37743000  1
  Ni  Ni39  1  0.43368300  0.41443700  0.37743000  1
  Cu  Cu40  1  0.64058500  0.15997400  0.78706600  1
  Cu  Cu41  1  0.51938900  0.35941500  0.78706600  1
  Cu  Cu42  1  0.84002600  0.48061100  0.78706600  1
  Cu  Cu43  1  0.35941500  0.84002600  0.21293400  1
  Cu  Cu44  1  0.48061100  0.64058500  0.21293400  1
  Cu  Cu45  1  0.15997400  0.51938900  0.21293400  1
  Cu  Cu46  1  0.66666700  0.33333300  0.63583800  1
  Cu  Cu47  1  0.33333300  0.66666700  0.36416200  1
  Cu  Cu48  1  0.90517400  0.30332100  0.01993300  1
  Cu  Cu49  1  0.39814700  0.09482600  0.01993300  1
  Cu  Cu50  1  0.69667900  0.60185300  0.01993300  1
  Cu  Cu51  1  0.09482600  0.69667900  0.98006700  1
  Cu  Cu52  1  0.60185300  0.90517400  0.98006700  1
  Cu  Cu53  1  0.30332100  0.39814700  0.98006700  1
  Cu  Cu54  1  0.10622600  0.26002400  0.80800400  1
  Cu  Cu55  1  0.15379900  0.89377400  0.80800400  1
  Cu  Cu56  1  0.73997600  0.84620100  0.80800400  1
  Cu  Cu57  1  0.89377400  0.73997600  0.19199600  1
  Cu  Cu58  1  0.84620100  0.10622600  0.19199600  1
  Cu  Cu59  1  0.26002400  0.15379900  0.19199600  1
  Cu  Cu60  1  0.79699800  0.00304100  0.58854300  1
  Cu  Cu61  1  0.20604300  0.20300200  0.58854300  1
  Cu  Cu62  1  0.99695900  0.79395700  0.58854300  1
  Cu  Cu63  1  0.20300200  0.99695900  0.41145700  1
  Cu  Cu64  1  0.79395700  0.79699800  0.41145700  1
  Cu  Cu65  1  0.00304100  0.20604300  0.41145700  1
  Cu  Cu66  1  0.13000800  0.51377800  0.57223400  1
  Cu  Cu67  1  0.38377000  0.86999200  0.57223400  1
  Cu  Cu68  1  0.48622200  0.61623000  0.57223400  1
  Cu  Cu69  1  0.86999200  0.48622200  0.42776600  1
  Cu  Cu70  1  0.61623000  0.13000800  0.42776600  1
  Cu  Cu71  1  0.51377800  0.38377000  0.42776600  1
