# generated using pymatgen
data_Cu9NiC28
_symmetry_space_group_name_H-M   'P 1'
_cell_length_a   6.41224400
_cell_length_b   7.59004174
_cell_length_c   7.59746130
_cell_angle_alpha   67.05147245
_cell_angle_beta   88.93085623
_cell_angle_gamma   89.24455364
_symmetry_Int_Tables_number   1
_chemical_formula_structural   Cu9NiC28
_chemical_formula_sum   'Cu9 Ni1 C28'
_cell_volume   340.43141214
_cell_formula_units_Z   1
loop_
 _symmetry_equiv_pos_site_id
 _symmetry_equiv_pos_as_xyz
  1  'x, y, z'
loop_
 _atom_site_type_symbol
 _atom_site_label
 _atom_site_symmetry_multiplicity
 _atom_site_fract_x
 _atom_site_fract_y
 _atom_site_fract_z
 _atom_site_occupancy
  C  C0  1  0.50000000  0.50000000  0.50000000  1
  C  C1  1  0.00000000  0.50000000  0.00000000  1
  C  C2  1  0.68742200  0.28584000  0.31141100  1
  C  C3  1  0.20844900  0.29128100  0.79322900  1
  C  C4  1  0.89425900  0.09743700  0.10330400  1
  C  C5  1  0.10574100  0.90256300  0.89669600  1
  C  C6  1  0.79155100  0.70871900  0.20677100  1
  C  C7  1  0.31257800  0.71416000  0.68858900  1
  Ni  Ni8  1  0.00000000  0.00000000  0.50000000  1
  Cu  Cu9  1  0.09963000  0.40188800  0.39969400  1
  Cu  Cu10  1  0.90037000  0.59811200  0.60030600  1
  Cu  Cu11  1  0.60244000  0.39889200  0.90203700  1
  Cu  Cu12  1  0.30355100  0.20042900  0.20147900  1
  Cu  Cu13  1  0.79836700  0.20043700  0.70434400  1
  Cu  Cu14  1  0.50000000  0.00000000  0.00000000  1
  Cu  Cu15  1  0.20163300  0.79956300  0.29565600  1
  Cu  Cu16  1  0.69644900  0.79957100  0.79852100  1
  Cu  Cu17  1  0.39756000  0.60110800  0.09796300  1
  C  C18  1  0.18230900  0.54555600  0.54111900  1
  C  C19  1  0.81769100  0.45444400  0.45888100  1
  C  C20  1  0.67699300  0.54386800  0.04758300  1
  C  C21  1  0.38514400  0.37620900  0.32418500  1
  C  C22  1  0.32300700  0.45613200  0.95241700  1
  C  C23  1  0.00993300  0.25467700  0.26271600  1
  C  C24  1  0.88110300  0.34738400  0.85068900  1
  C  C25  1  0.72697000  0.05337400  0.55878300  1
  C  C26  1  0.59249100  0.17124200  0.12052200  1
  C  C27  1  0.52178700  0.25709200  0.76190700  1
  C  C28  1  0.27303000  0.94662600  0.44121700  1
  C  C29  1  0.22230100  0.05137000  0.05006000  1
  C  C30  1  0.92497500  0.85307200  0.35015200  1
  C  C31  1  0.07502500  0.14692800  0.64984800  1
  C  C32  1  0.77769900  0.94863000  0.94994000  1
  C  C33  1  0.47821300  0.74290800  0.23809300  1
  C  C34  1  0.40750900  0.82875800  0.87947800  1
  C  C35  1  0.11889700  0.65261600  0.14931100  1
  C  C36  1  0.99006700  0.74532300  0.73728400  1
  C  C37  1  0.61485600  0.62379100  0.67581500  1
