# generated using pymatgen
data_Cu4NiC2
_symmetry_space_group_name_H-M   'P 1'
_cell_length_a   6.18307900
_cell_length_b   7.34413500
_cell_length_c   12.55808600
_cell_angle_alpha   90.00000000
_cell_angle_beta   90.00000000
_cell_angle_gamma   90.00000000
_symmetry_Int_Tables_number   1
_chemical_formula_structural   Cu4NiC2
_chemical_formula_sum   'Cu16 Ni4 C8'
_cell_volume   570.25473463
_cell_formula_units_Z   4
loop_
 _symmetry_equiv_pos_site_id
 _symmetry_equiv_pos_as_xyz
  1  'x, y, z'
loop_
 _atom_site_type_symbol
 _atom_site_label
 _atom_site_symmetry_multiplicity
 _atom_site_fract_x
 _atom_site_fract_y
 _atom_site_fract_z
 _atom_site_occupancy
  C  C0  1  0.49796100  0.75000000  0.72718800  1
  C  C1  1  0.50203900  0.25000000  0.27281200  1
  C  C2  1  0.00000000  0.50000000  0.50000000  1
  C  C3  1  0.00203900  0.75000000  0.22718800  1
  C  C4  1  0.99796100  0.25000000  0.77281200  1
  C  C5  1  0.50000000  0.00000000  0.00000000  1
  C  C6  1  0.00000000  0.00000000  0.50000000  1
  C  C7  1  0.50000000  0.50000000  0.00000000  1
  Ni  Ni8  1  0.92926900  0.25000000  0.08977100  1
  Ni  Ni9  1  0.57073100  0.25000000  0.58977100  1
  Ni  Ni10  1  0.42926900  0.75000000  0.41022900  1
  Ni  Ni11  1  0.07073100  0.75000000  0.91022900  1
  Cu  Cu12  1  0.77149200  0.50818100  0.66328400  1
  Cu  Cu13  1  0.72850800  0.99181900  0.16328400  1
  Cu  Cu14  1  0.77803400  0.25000000  0.42309100  1
  Cu  Cu15  1  0.22850800  0.00818100  0.33671600  1
  Cu  Cu16  1  0.22196600  0.75000000  0.57690900  1
  Cu  Cu17  1  0.72196600  0.25000000  0.92309100  1
  Cu  Cu18  1  0.66570800  0.75000000  0.91116600  1
  Cu  Cu19  1  0.83429200  0.75000000  0.41116600  1
  Cu  Cu20  1  0.16570800  0.25000000  0.58883400  1
  Cu  Cu21  1  0.33429200  0.25000000  0.08883400  1
  Cu  Cu22  1  0.72850800  0.50818100  0.16328400  1
  Cu  Cu23  1  0.27803400  0.75000000  0.07690900  1
  Cu  Cu24  1  0.27149200  0.49181900  0.83671600  1
  Cu  Cu25  1  0.77149200  0.99181900  0.66328400  1
  Cu  Cu26  1  0.22850800  0.49181900  0.33671600  1
  Cu  Cu27  1  0.27149200  0.00818100  0.83671600  1
