# generated using pymatgen
data_Cu7NiC4
_symmetry_space_group_name_H-M   'P 1'
_cell_length_a   6.61829800
_cell_length_b   10.28227761
_cell_length_c   10.77602201
_cell_angle_alpha   118.28733134
_cell_angle_beta   90.00000532
_cell_angle_gamma   90.00000000
_symmetry_Int_Tables_number   1
_chemical_formula_structural   Cu7NiC4
_chemical_formula_sum   'Cu28 Ni4 C16'
_cell_volume   645.74937484
_cell_formula_units_Z   4
loop_
 _symmetry_equiv_pos_site_id
 _symmetry_equiv_pos_as_xyz
  1  'x, y, z'
loop_
 _atom_site_type_symbol
 _atom_site_label
 _atom_site_symmetry_multiplicity
 _atom_site_fract_x
 _atom_site_fract_y
 _atom_site_fract_z
 _atom_site_occupancy
  C  C0  1  0.49986000  0.00744400  0.22772600  1
  C  C1  1  0.49984400  0.50741800  0.72770700  1
  C  C2  1  0.00014100  0.00744700  0.22772700  1
  C  C3  1  0.00015600  0.50742000  0.72770800  1
  C  C4  1  0.50014900  0.99263900  0.77235000  1
  C  C5  1  0.50013400  0.49261400  0.27234700  1
  C  C6  1  0.99985100  0.99264000  0.77235000  1
  C  C7  1  0.99986600  0.49261600  0.27234700  1
  C  C8  1  0.75000000  0.71896200  0.07713500  1
  C  C9  1  0.24999900  0.78090800  0.42277200  1
  C  C10  1  0.75000100  0.21904700  0.57718300  1
  C  C11  1  0.25000000  0.28085400  0.92273700  1
  C  C12  1  0.25000000  0.14955400  0.58210500  1
  C  C13  1  0.25000000  0.64967800  0.08219400  1
  C  C14  1  0.75000000  0.85024100  0.41776700  1
  C  C15  1  0.75000000  0.35034200  0.91785300  1
  Ni  Ni16  1  0.75000000  0.32198400  0.40543800  1
  Ni  Ni17  1  0.75000000  0.82197800  0.90546300  1
  Ni  Ni18  1  0.25000000  0.67813100  0.59457300  1
  Ni  Ni19  1  0.25000000  0.17812500  0.09458600  1
  Cu  Cu20  1  0.25000000  0.13030300  0.18230600  1
  Cu  Cu21  1  0.25000000  0.63032900  0.68231000  1
  Cu  Cu22  1  0.75000000  0.86985900  0.81774000  1
  Cu  Cu23  1  0.75000000  0.36986900  0.31773400  1
  Cu  Cu24  1  0.75000000  0.40500600  0.54275200  1
  Cu  Cu25  1  0.75000000  0.90494900  0.04275700  1
  Cu  Cu26  1  0.25000000  0.59504900  0.45725000  1
  Cu  Cu27  1  0.25000000  0.09503000  0.95726000  1
  Cu  Cu28  1  0.75000000  0.17946200  0.36875100  1
  Cu  Cu29  1  0.75000000  0.67941200  0.86871000  1
  Cu  Cu30  1  0.25000000  0.82065600  0.63120000  1
  Cu  Cu31  1  0.25000000  0.32062500  0.13118600  1
  Cu  Cu32  1  0.75000000  0.85913200  0.26761800  1
  Cu  Cu33  1  0.75000000  0.35916300  0.76763600  1
  Cu  Cu34  1  0.25000000  0.14073000  0.73235500  1
  Cu  Cu35  1  0.25000000  0.64076500  0.23236800  1
  Cu  Cu36  1  0.25000000  0.97406100  0.45542500  1
  Cu  Cu37  1  0.25000000  0.47402400  0.95538800  1
  Cu  Cu38  1  0.75000000  0.02596300  0.54457600  1
  Cu  Cu39  1  0.75000000  0.52593400  0.04453500  1
  Cu  Cu40  1  0.04771200  0.23249400  0.57071200  1
  Cu  Cu41  1  0.04771000  0.73250900  0.07073700  1
  Cu  Cu42  1  0.45228800  0.23249300  0.57071200  1
  Cu  Cu43  1  0.45229000  0.73250900  0.07073600  1
  Cu  Cu44  1  0.54771700  0.76738800  0.42927700  1
  Cu  Cu45  1  0.54772500  0.26742500  0.92931500  1
  Cu  Cu46  1  0.95228300  0.76738900  0.42927700  1
  Cu  Cu47  1  0.95227500  0.26742500  0.92931500  1
