# generated using pymatgen
data_Cu2Ni2C5
_symmetry_space_group_name_H-M   'P 1'
_cell_length_a   6.65283500
_cell_length_b   6.75392257
_cell_length_c   7.18187027
_cell_angle_alpha   100.62831487
_cell_angle_beta   114.58042060
_cell_angle_gamma   96.56579351
_symmetry_Int_Tables_number   1
_chemical_formula_structural   Cu2Ni2C5
_chemical_formula_sum   'Cu6 Ni6 C15'
_cell_volume   281.75559007
_cell_formula_units_Z   3
loop_
 _symmetry_equiv_pos_site_id
 _symmetry_equiv_pos_as_xyz
  1  'x, y, z'
loop_
 _atom_site_type_symbol
 _atom_site_label
 _atom_site_symmetry_multiplicity
 _atom_site_fract_x
 _atom_site_fract_y
 _atom_site_fract_z
 _atom_site_occupancy
  C  C0  1  0.41410900  0.93945500  0.13907700  1
  C  C1  1  0.58589100  0.06054500  0.86092300  1
  C  C2  1  0.25368800  0.74141000  0.15385600  1
  C  C3  1  0.74631200  0.25859000  0.84614400  1
  C  C4  1  0.25307500  0.74827800  0.92162500  1
  C  C5  1  0.74692500  0.25172200  0.07837500  1
  C  C6  1  0.02354700  0.15871100  0.36797000  1
  C  C7  1  0.97645300  0.84128900  0.63203000  1
  C  C8  1  0.25627400  0.07276000  0.41113800  1
  C  C9  1  0.74372600  0.92724000  0.58886200  1
  C  C10  1  0.23143400  0.30234200  0.34611200  1
  C  C11  1  0.76856600  0.69765800  0.65388800  1
  C  C12  1  0.00000000  0.00000000  0.00000000  1
  Ni  Ni13  1  0.25897400  0.83773600  0.05838700  1
  Ni  Ni14  1  0.74102600  0.16226400  0.94161300  1
  Ni  Ni15  1  0.14858100  0.15240000  0.31922800  1
  Ni  Ni16  1  0.85141900  0.84760000  0.68077200  1
  Ni  Ni17  1  0.71651100  0.31801700  0.44710400  1
  Ni  Ni18  1  0.28348900  0.68198300  0.55289600  1
  C  C19  1  0.78648400  0.74691200  0.06587900  1
  C  C20  1  0.21351600  0.25308800  0.93412100  1
  Cu  Cu21  1  0.69774300  0.39988900  0.61137600  1
  Cu  Cu22  1  0.30225700  0.60011100  0.38862400  1
  Cu  Cu23  1  0.75950100  0.42674500  0.33863100  1
  Cu  Cu24  1  0.24049900  0.57325500  0.66136900  1
  Cu  Cu25  1  0.69181700  0.12097200  0.39142900  1
  Cu  Cu26  1  0.30818300  0.87902800  0.60857100  1
