# generated using pymatgen
data_CuNiC5
_symmetry_space_group_name_H-M   'P 1'
_cell_length_a   8.62418896
_cell_length_b   8.62418896
_cell_length_c   8.62418923
_cell_angle_alpha   107.78008097
_cell_angle_beta   107.78008097
_cell_angle_gamma   107.78007953
_symmetry_Int_Tables_number   1
_chemical_formula_structural   CuNiC5
_chemical_formula_sum   'Cu6 Ni6 C30'
_cell_volume   522.41159707
_cell_formula_units_Z   6
loop_
 _symmetry_equiv_pos_site_id
 _symmetry_equiv_pos_as_xyz
  1  'x, y, z'
loop_
 _atom_site_type_symbol
 _atom_site_label
 _atom_site_symmetry_multiplicity
 _atom_site_fract_x
 _atom_site_fract_y
 _atom_site_fract_z
 _atom_site_occupancy
  C  C0  1  0.89312300  0.12655800  0.72437100  1
  C  C1  1  0.43359700  0.21094600  0.60732100  1
  C  C2  1  0.60732100  0.43359700  0.21094600  1
  C  C3  1  0.72437100  0.89312300  0.12655800  1
  C  C4  1  0.21094600  0.60732100  0.43359700  1
  C  C5  1  0.12655800  0.72437100  0.89312300  1
  Ni  Ni6  1  0.45835300  0.05451000  0.23428800  1
  Ni  Ni7  1  0.76843600  0.53431100  0.94515500  1
  Ni  Ni8  1  0.94515500  0.76843600  0.53431100  1
  Ni  Ni9  1  0.05451000  0.23428800  0.45835300  1
  Ni  Ni10  1  0.23428800  0.45835300  0.05451000  1
  Ni  Ni11  1  0.53431100  0.94515500  0.76843600  1
  Cu  Cu12  1  0.87316600  0.28058500  0.09689100  1
  Cu  Cu13  1  0.79575200  0.38759600  0.56766200  1
  Cu  Cu14  1  0.28058500  0.09689100  0.87316600  1
  Cu  Cu15  1  0.38759600  0.56766200  0.79575200  1
  Cu  Cu16  1  0.56766200  0.79575200  0.38759600  1
  Cu  Cu17  1  0.09689100  0.87316600  0.28058500  1
  C  C18  1  0.98672200  0.30796900  0.97605200  1
  C  C19  1  0.72957300  0.06422100  0.00781600  1
  C  C20  1  0.90898600  0.26487300  0.57955800  1
  C  C21  1  0.76040300  0.40401300  0.08740000  1
  C  C22  1  0.93622600  0.59991200  0.63542600  1
  C  C23  1  0.63530800  0.30085800  0.35953700  1
  C  C24  1  0.40401300  0.08740000  0.76040300  1
  C  C25  1  0.69624600  0.37763500  0.70234300  1
  C  C26  1  0.30636900  0.02053800  0.35197700  1
  C  C27  1  0.06422100  0.00781600  0.72957300  1
  C  C28  1  0.35197700  0.30636900  0.02053800  1
  C  C29  1  0.70234300  0.69624600  0.37763500  1
  C  C30  1  0.97605200  0.98672200  0.30796900  1
  C  C31  1  0.59991200  0.63542600  0.93622600  1
  C  C32  1  0.30085800  0.35953700  0.63530800  1
  C  C33  1  0.35953700  0.63530800  0.30085800  1
  C  C34  1  0.63542600  0.93622600  0.59991200  1
  C  C35  1  0.26487300  0.57955800  0.90898600  1
  C  C36  1  0.37763500  0.70234300  0.69624600  1
  C  C37  1  0.02053800  0.35197700  0.30636900  1
  C  C38  1  0.57955800  0.90898600  0.26487300  1
  C  C39  1  0.30796900  0.97605200  0.98672200  1
  C  C40  1  0.08740000  0.76040300  0.40401300  1
  C  C41  1  0.00781600  0.72957300  0.06422100  1
