# generated using pymatgen
data_CuNiC10
_symmetry_space_group_name_H-M   'P 1'
_cell_length_a   6.39208518
_cell_length_b   11.03276946
_cell_length_c   10.48902989
_cell_angle_alpha   118.11077272
_cell_angle_beta   89.99947442
_cell_angle_gamma   89.97911229
_symmetry_Int_Tables_number   1
_chemical_formula_structural   CuNiC10
_chemical_formula_sum   'Cu4 Ni4 C40'
_cell_volume   652.45388414
_cell_formula_units_Z   4
loop_
 _symmetry_equiv_pos_site_id
 _symmetry_equiv_pos_as_xyz
  1  'x, y, z'
loop_
 _atom_site_type_symbol
 _atom_site_label
 _atom_site_symmetry_multiplicity
 _atom_site_fract_x
 _atom_site_fract_y
 _atom_site_fract_z
 _atom_site_occupancy
  C  C0  1  0.99579100  0.22377100  0.21074700  1
  C  C1  1  0.99628400  0.72407900  0.21108800  1
  C  C2  1  0.50341700  0.22403400  0.21159500  1
  C  C3  1  0.50401200  0.72401800  0.21115000  1
  C  C4  1  0.49598600  0.77604100  0.78900200  1
  C  C5  1  0.49650600  0.27587500  0.78866900  1
  C  C6  1  0.00362700  0.77609800  0.78865100  1
  C  C7  1  0.00420800  0.27614700  0.78915000  1
  C  C8  1  0.74959300  0.05821000  0.33809300  1
  C  C9  1  0.24952200  0.94177000  0.66188400  1
  C  C10  1  0.75045700  0.55810900  0.33797900  1
  C  C11  1  0.24995300  0.44190300  0.66206500  1
  Ni  Ni12  1  0.75007200  0.40433400  0.08248000  1
  Ni  Ni13  1  0.74997000  0.90430600  0.08252800  1
  Ni  Ni14  1  0.25017100  0.59570900  0.91757400  1
  Ni  Ni15  1  0.25007400  0.09567500  0.91743700  1
  Cu  Cu16  1  0.25041800  0.58577300  0.44271400  1
  Cu  Cu17  1  0.24970400  0.08588400  0.44274800  1
  Cu  Cu18  1  0.74999900  0.41421900  0.55729800  1
  Cu  Cu19  1  0.74957500  0.91411000  0.55722000  1
  C  C20  1  0.25014600  0.18072700  0.05558800  1
  C  C21  1  0.25022700  0.68076200  0.05563600  1
  C  C22  1  0.75007800  0.81921200  0.94436700  1
  C  C23  1  0.75012300  0.31928200  0.94441100  1
  C  C24  1  0.75024400  0.55171500  0.15366500  1
  C  C25  1  0.74942300  0.05168300  0.15372700  1
  C  C26  1  0.25029200  0.44832400  0.84638500  1
  C  C27  1  0.24950700  0.94827000  0.84622200  1
  C  C28  1  0.74990900  0.37022000  0.19987100  1
  C  C29  1  0.75026000  0.87037000  0.20007600  1
  C  C30  1  0.25002300  0.62981400  0.80018000  1
  C  C31  1  0.25041400  0.12959200  0.79988300  1
  C  C32  1  0.75006300  0.27328100  0.42097300  1
  C  C33  1  0.75075700  0.77316300  0.42097100  1
  C  C34  1  0.24996700  0.72670800  0.57902300  1
  C  C35  1  0.25046100  0.22682000  0.57906300  1
  C  C36  1  0.25078900  0.46473200  0.47882300  1
  C  C37  1  0.24949600  0.96474100  0.47871800  1
  C  C38  1  0.74992200  0.53526800  0.52121600  1
  C  C39  1  0.74884000  0.03520600  0.52116400  1
  C  C40  1  0.05507300  0.57352600  0.34790000  1
  C  C41  1  0.05448000  0.07419600  0.34813800  1
  C  C42  1  0.44550200  0.57392600  0.34789500  1
  C  C43  1  0.44483400  0.07357700  0.34768000  1
  C  C44  1  0.55498000  0.42619600  0.65221400  1
  C  C45  1  0.55453700  0.92565600  0.65188300  1
  C  C46  1  0.94542200  0.42626600  0.65201100  1
  C  C47  1  0.94489300  0.92670200  0.65224700  1
