# generated using pymatgen
data_CuNiC5
_symmetry_space_group_name_H-M   'P 1'
_cell_length_a   7.28437200
_cell_length_b   14.64532100
_cell_length_c   15.53248100
_cell_angle_alpha   90.00000000
_cell_angle_beta   90.00000000
_cell_angle_gamma   90.00000000
_symmetry_Int_Tables_number   1
_chemical_formula_structural   CuNiC5
_chemical_formula_sum   'Cu8 Ni8 C40'
_cell_volume   1657.03561341
_cell_formula_units_Z   8
loop_
 _symmetry_equiv_pos_site_id
 _symmetry_equiv_pos_as_xyz
  1  'x, y, z'
loop_
 _atom_site_type_symbol
 _atom_site_label
 _atom_site_symmetry_multiplicity
 _atom_site_fract_x
 _atom_site_fract_y
 _atom_site_fract_z
 _atom_site_occupancy
  Ni  Ni0  1  0.75000000  0.51991200  0.10196200  1
  Ni  Ni1  1  0.25000000  0.81479500  0.09469400  1
  Ni  Ni2  1  0.75000000  0.31479500  0.40530600  1
  Ni  Ni3  1  0.25000000  0.01991200  0.39803800  1
  Ni  Ni4  1  0.75000000  0.98008800  0.60196200  1
  Ni  Ni5  1  0.25000000  0.68520500  0.59469400  1
  Ni  Ni6  1  0.75000000  0.18520500  0.90530600  1
  Ni  Ni7  1  0.25000000  0.48008800  0.89803800  1
  Cu  Cu8  1  0.25000000  0.21498800  0.10420600  1
  Cu  Cu9  1  0.75000000  0.03477000  0.22043400  1
  Cu  Cu10  1  0.25000000  0.53477000  0.27956600  1
  Cu  Cu11  1  0.75000000  0.71498800  0.39579400  1
  Cu  Cu12  1  0.25000000  0.28501200  0.60420600  1
  Cu  Cu13  1  0.75000000  0.46523000  0.72043400  1
  Cu  Cu14  1  0.25000000  0.96523000  0.77956600  1
  Cu  Cu15  1  0.75000000  0.78501200  0.89579400  1
  C  C16  1  0.98801800  0.32780600  0.02517000  1
  C  C17  1  0.51198200  0.32780600  0.02517000  1
  C  C18  1  0.75000000  0.83837000  0.07306800  1
  C  C19  1  0.98244700  0.07749200  0.07816200  1
  C  C20  1  0.51755300  0.07749200  0.07816200  1
  C  C21  1  0.25000000  0.51646800  0.09635100  1
  C  C22  1  0.98696100  0.67165600  0.22384800  1
  C  C23  1  0.51303900  0.67165600  0.22384800  1
  C  C24  1  0.97584200  0.40661500  0.24597900  1
  C  C25  1  0.52415800  0.40661500  0.24597900  1
  C  C26  1  0.47584200  0.90661500  0.25402100  1
  C  C27  1  0.02415800  0.90661500  0.25402100  1
  C  C28  1  0.48696100  0.17165600  0.27615200  1
  C  C29  1  0.01303900  0.17165600  0.27615200  1
  C  C30  1  0.75000000  0.01646800  0.40364900  1
  C  C31  1  0.48244700  0.57749200  0.42183800  1
  C  C32  1  0.01755300  0.57749200  0.42183800  1
  C  C33  1  0.25000000  0.33837000  0.42693200  1
  C  C34  1  0.48801800  0.82780600  0.47483000  1
  C  C35  1  0.01198200  0.82780600  0.47483000  1
  C  C36  1  0.98801800  0.17219400  0.52517000  1
  C  C37  1  0.51198200  0.17219400  0.52517000  1
  C  C38  1  0.75000000  0.66163000  0.57306800  1
  C  C39  1  0.98244700  0.42250800  0.57816200  1
  C  C40  1  0.51755300  0.42250800  0.57816200  1
  C  C41  1  0.25000000  0.98353200  0.59635100  1
  C  C42  1  0.98696100  0.82834400  0.72384800  1
  C  C43  1  0.51303900  0.82834400  0.72384800  1
  C  C44  1  0.97584200  0.09338500  0.74597900  1
  C  C45  1  0.52415800  0.09338500  0.74597900  1
  C  C46  1  0.47584200  0.59338500  0.75402100  1
  C  C47  1  0.02415800  0.59338500  0.75402100  1
  C  C48  1  0.48696100  0.32834400  0.77615200  1
  C  C49  1  0.01303900  0.32834400  0.77615200  1
  C  C50  1  0.75000000  0.48353200  0.90364900  1
  C  C51  1  0.48244700  0.92250800  0.92183800  1
  C  C52  1  0.01755300  0.92250800  0.92183800  1
  C  C53  1  0.25000000  0.16163000  0.92693200  1
  C  C54  1  0.48801800  0.67219400  0.97483000  1
  C  C55  1  0.01198200  0.67219400  0.97483000  1
