# generated using pymatgen
data_CuNiC10
_symmetry_space_group_name_H-M   'P 1'
_cell_length_a   6.34270200
_cell_length_b   5.30582800
_cell_length_c   8.70220433
_cell_angle_alpha   85.72485326
_cell_angle_beta   90.00000000
_cell_angle_gamma   90.00000000
_symmetry_Int_Tables_number   1
_chemical_formula_structural   CuNiC10
_chemical_formula_sum   'Cu2 Ni2 C20'
_cell_volume   292.04291188
_cell_formula_units_Z   2
loop_
 _symmetry_equiv_pos_site_id
 _symmetry_equiv_pos_as_xyz
  1  'x, y, z'
loop_
 _atom_site_type_symbol
 _atom_site_label
 _atom_site_symmetry_multiplicity
 _atom_site_fract_x
 _atom_site_fract_y
 _atom_site_fract_z
 _atom_site_occupancy
  C  C0  1  0.49015100  0.79035400  0.77176200  1
  C  C1  1  0.00984900  0.79035400  0.77176200  1
  C  C2  1  0.50984900  0.20964600  0.22823800  1
  C  C3  1  0.99015100  0.20964600  0.22823800  1
  C  C4  1  0.25000000  0.22271600  0.65577700  1
  C  C5  1  0.75000000  0.77728400  0.34422300  1
  Ni  Ni6  1  0.75000000  0.30152600  0.56512200  1
  Ni  Ni7  1  0.25000000  0.69847400  0.43487800  1
  Cu  Cu8  1  0.25000000  0.29398900  0.94999400  1
  Cu  Cu9  1  0.75000000  0.70601100  0.05000600  1
  C  C10  1  0.75000000  0.75175100  0.90386300  1
  C  C11  1  0.25000000  0.09247200  0.86628900  1
  C  C12  1  0.25000000  0.51134500  0.87793100  1
  C  C13  1  0.95456500  0.18506600  0.68025700  1
  C  C14  1  0.54543500  0.18506600  0.68025700  1
  C  C15  1  0.25000000  0.79852400  0.61508200  1
  C  C16  1  0.75000000  0.63391700  0.55180100  1
  C  C17  1  0.25000000  0.36608300  0.44819900  1
  C  C18  1  0.75000000  0.20147600  0.38491800  1
  C  C19  1  0.45456500  0.81493400  0.31974300  1
  C  C20  1  0.04543500  0.81493400  0.31974300  1
  C  C21  1  0.75000000  0.48865500  0.12206900  1
  C  C22  1  0.75000000  0.90752800  0.13371100  1
  C  C23  1  0.25000000  0.24824900  0.09613700  1
