# generated using pymatgen
data_Cu9Ni6C35
_symmetry_space_group_name_H-M   'P 1'
_cell_length_a   13.54133400
_cell_length_b   13.54133400
_cell_length_c   13.54133400
_cell_angle_alpha   90.00000000
_cell_angle_beta   90.00000000
_cell_angle_gamma   90.00000000
_symmetry_Int_Tables_number   1
_chemical_formula_structural   Cu9Ni6C35
_chemical_formula_sum   'Cu36 Ni24 C140'
_cell_volume   2483.04362935
_cell_formula_units_Z   4
loop_
 _symmetry_equiv_pos_site_id
 _symmetry_equiv_pos_as_xyz
  1  'x, y, z'
loop_
 _atom_site_type_symbol
 _atom_site_label
 _atom_site_symmetry_multiplicity
 _atom_site_fract_x
 _atom_site_fract_y
 _atom_site_fract_z
 _atom_site_occupancy
  C  C0  1  0.20169500  0.95391100  0.77882000  1
  C  C1  1  0.22118000  0.70169500  0.54608900  1
  C  C2  1  0.45391100  0.72118000  0.79830500  1
  C  C3  1  0.70169500  0.54608900  0.22118000  1
  C  C4  1  0.72118000  0.79830500  0.45391100  1
  C  C5  1  0.95391100  0.77882000  0.20169500  1
  C  C6  1  0.79830500  0.45391100  0.72118000  1
  C  C7  1  0.77882000  0.20169500  0.95391100  1
  C  C8  1  0.54608900  0.22118000  0.70169500  1
  C  C9  1  0.29830500  0.04608900  0.27882000  1
  C  C10  1  0.27882000  0.29830500  0.04608900  1
  C  C11  1  0.04608900  0.27882000  0.29830500  1
  C  C12  1  0.03174200  0.53174200  0.96825800  1
  C  C13  1  0.53174200  0.96825800  0.03174200  1
  C  C14  1  0.96825800  0.03174200  0.53174200  1
  C  C15  1  0.46825800  0.46825800  0.46825800  1
  C  C16  1  0.77780000  0.77780000  0.77780000  1
  C  C17  1  0.22220000  0.27780000  0.72220000  1
  C  C18  1  0.27780000  0.72220000  0.22220000  1
  C  C19  1  0.72220000  0.22220000  0.27780000  1
  Ni  Ni20  1  0.03878000  0.64844200  0.52606600  1
  Ni  Ni21  1  0.47393400  0.53878000  0.85155800  1
  Ni  Ni22  1  0.14844200  0.97393400  0.96122000  1
  Ni  Ni23  1  0.53878000  0.85155800  0.47393400  1
  Ni  Ni24  1  0.97393400  0.96122000  0.14844200  1
  Ni  Ni25  1  0.64844200  0.52606600  0.03878000  1
  Ni  Ni26  1  0.96122000  0.14844200  0.97393400  1
  Ni  Ni27  1  0.52606600  0.03878000  0.64844200  1
  Ni  Ni28  1  0.85155800  0.47393400  0.53878000  1
  Ni  Ni29  1  0.46122000  0.35155800  0.02606600  1
  Ni  Ni30  1  0.02606600  0.46122000  0.35155800  1
  Ni  Ni31  1  0.35155800  0.02606600  0.46122000  1
  Ni  Ni32  1  0.09856400  0.56919100  0.58274900  1
  Ni  Ni33  1  0.41725100  0.59856400  0.93080900  1
  Ni  Ni34  1  0.06919100  0.91725100  0.90143600  1
  Ni  Ni35  1  0.59856400  0.93080900  0.41725100  1
  Ni  Ni36  1  0.91725100  0.90143600  0.06919100  1
  Ni  Ni37  1  0.56919100  0.58274900  0.09856400  1
  Ni  Ni38  1  0.90143600  0.06919100  0.91725100  1
  Ni  Ni39  1  0.58274900  0.09856400  0.56919100  1
  Ni  Ni40  1  0.93080900  0.41725100  0.59856400  1
  Ni  Ni41  1  0.40143600  0.43080900  0.08274900  1
  Ni  Ni42  1  0.08274900  0.40143600  0.43080900  1
  Ni  Ni43  1  0.43080900  0.08274900  0.40143600  1
  Cu  Cu44  1  0.23784500  0.62671800  0.01120800  1
  Cu  Cu45  1  0.98879200  0.73784500  0.87328200  1
  Cu  Cu46  1  0.12671800  0.48879200  0.76215500  1
  Cu  Cu47  1  0.73784500  0.87328200  0.98879200  1
  Cu  Cu48  1  0.48879200  0.76215500  0.12671800  1
  Cu  Cu49  1  0.62671800  0.01120800  0.23784500  1
  Cu  Cu50  1  0.76215500  0.12671800  0.48879200  1
  Cu  Cu51  1  0.01120800  0.23784500  0.62671800  1
  Cu  Cu52  1  0.87328200  0.98879200  0.73784500  1
  Cu  Cu53  1  0.26215500  0.37328200  0.51120800  1
  Cu  Cu54  1  0.51120800  0.26215500  0.37328200  1
  Cu  Cu55  1  0.37328200  0.51120800  0.26215500  1
  Cu  Cu56  1  0.38643600  0.60897600  0.62926200  1
  Cu  Cu57  1  0.37073800  0.88643600  0.89102400  1
  Cu  Cu58  1  0.10897600  0.87073800  0.61356400  1
  Cu  Cu59  1  0.88643600  0.89102400  0.37073800  1
  Cu  Cu60  1  0.87073800  0.61356400  0.10897600  1
  Cu  Cu61  1  0.60897600  0.62926200  0.38643600  1
  Cu  Cu62  1  0.61356400  0.10897600  0.87073800  1
  Cu  Cu63  1  0.62926200  0.38643600  0.60897600  1
  Cu  Cu64  1  0.89102400  0.37073800  0.88643600  1
  Cu  Cu65  1  0.11356400  0.39102400  0.12926200  1
  Cu  Cu66  1  0.12926200  0.11356400  0.39102400  1
  Cu  Cu67  1  0.39102400  0.12926200  0.11356400  1
  Cu  Cu68  1  0.70842500  0.57704500  0.85370500  1
  Cu  Cu69  1  0.14629500  0.20842500  0.92295500  1
  Cu  Cu70  1  0.07704500  0.64629500  0.29157500  1
  Cu  Cu71  1  0.20842500  0.92295500  0.14629500  1
  Cu  Cu72  1  0.64629500  0.29157500  0.07704500  1
  Cu  Cu73  1  0.57704500  0.85370500  0.70842500  1
  Cu  Cu74  1  0.29157500  0.07704500  0.64629500  1
  Cu  Cu75  1  0.85370500  0.70842500  0.57704500  1
  Cu  Cu76  1  0.92295500  0.14629500  0.20842500  1
  Cu  Cu77  1  0.79157500  0.42295500  0.35370500  1
  Cu  Cu78  1  0.35370500  0.79157500  0.42295500  1
  Cu  Cu79  1  0.42295500  0.35370500  0.79157500  1
  C  C80  1  0.87295400  0.92228500  0.66966600  1
  C  C81  1  0.33033400  0.37295400  0.57771500  1
  C  C82  1  0.42228500  0.83033400  0.12704600  1
  C  C83  1  0.37295400  0.57771500  0.33033400  1
  C  C84  1  0.83033400  0.12704600  0.42228500  1
  C  C85  1  0.92228500  0.66966600  0.87295400  1
  C  C86  1  0.12704600  0.42228500  0.83033400  1
  C  C87  1  0.66966600  0.87295400  0.92228500  1
  C  C88  1  0.57771500  0.33033400  0.37295400  1
  C  C89  1  0.62704600  0.07771500  0.16966600  1
  C  C90  1  0.16966600  0.62704600  0.07771500  1
  C  C91  1  0.07771500  0.16966600  0.62704600  1
  C  C92  1  0.22294200  0.58178100  0.93188100  1
  C  C93  1  0.06811900  0.72294200  0.91821900  1
  C  C94  1  0.08178100  0.56811900  0.77705800  1
  C  C95  1  0.72294200  0.91821900  0.06811900  1
  C  C96  1  0.56811900  0.77705800  0.08178100  1
  C  C97  1  0.58178100  0.93188100  0.22294200  1
  C  C98  1  0.77705800  0.08178100  0.56811900  1
  C  C99  1  0.93188100  0.22294200  0.58178100  1
  C  C100  1  0.91821900  0.06811900  0.72294200  1
  C  C101  1  0.27705800  0.41821900  0.43188100  1
  C  C102  1  0.43188100  0.27705800  0.41821900  1
  C  C103  1  0.41821900  0.43188100  0.27705800  1
  C  C104  1  0.82896700  0.97116600  0.81771100  1
  C  C105  1  0.18228900  0.32896700  0.52883400  1
  C  C106  1  0.47116600  0.68228900  0.17103300  1
  C  C107  1  0.32896700  0.52883400  0.18228900  1
  C  C108  1  0.68228900  0.17103300  0.47116600  1
  C  C109  1  0.97116600  0.81771100  0.82896700  1
  C  C110  1  0.17103300  0.47116600  0.68228900  1
  C  C111  1  0.81771100  0.82896700  0.97116600  1
  C  C112  1  0.52883400  0.18228900  0.32896700  1
  C  C113  1  0.67103300  0.02883400  0.31771100  1
  C  C114  1  0.31771100  0.67103300  0.02883400  1
  C  C115  1  0.02883400  0.31771100  0.67103300  1
  C  C116  1  0.33930400  0.59595300  0.54744700  1
  C  C117  1  0.45255300  0.83930400  0.90404700  1
  C  C118  1  0.09595300  0.95255300  0.66069600  1
  C  C119  1  0.83930400  0.90404700  0.45255300  1
  C  C120  1  0.95255300  0.66069600  0.09595300  1
  C  C121  1  0.59595300  0.54744700  0.33930400  1
  C  C122  1  0.66069600  0.09595300  0.95255300  1
  C  C123  1  0.54744700  0.33930400  0.59595300  1
  C  C124  1  0.90404700  0.45255300  0.83930400  1
  C  C125  1  0.16069600  0.40404700  0.04744700  1
  C  C126  1  0.04744700  0.16069600  0.40404700  1
  C  C127  1  0.40404700  0.04744700  0.16069600  1
  C  C128  1  0.05692000  0.85656200  0.53690800  1
  C  C129  1  0.46309200  0.55692000  0.64343800  1
  C  C130  1  0.35656200  0.96309200  0.94308000  1
  C  C131  1  0.55692000  0.64343800  0.46309200  1
  C  C132  1  0.96309200  0.94308000  0.35656200  1
  C  C133  1  0.85656200  0.53690800  0.05692000  1
  C  C134  1  0.94308000  0.35656200  0.96309200  1
  C  C135  1  0.53690800  0.05692000  0.85656200  1
  C  C136  1  0.64343800  0.46309200  0.55692000  1
  C  C137  1  0.44308000  0.14343800  0.03690800  1
  C  C138  1  0.03690800  0.44308000  0.14343800  1
  C  C139  1  0.14343800  0.03690800  0.44308000  1
  C  C140  1  0.35635600  0.67135900  0.68986400  1
  C  C141  1  0.31013600  0.85635600  0.82864100  1
  C  C142  1  0.17135900  0.81013600  0.64364400  1
  C  C143  1  0.85635600  0.82864100  0.31013600  1
  C  C144  1  0.81013600  0.64364400  0.17135900  1
  C  C145  1  0.67135900  0.68986400  0.35635600  1
  C  C146  1  0.64364400  0.17135900  0.81013600  1
  C  C147  1  0.68986400  0.35635600  0.67135900  1
  C  C148  1  0.82864100  0.31013600  0.85635600  1
  C  C149  1  0.14364400  0.32864100  0.18986400  1
  C  C150  1  0.18986400  0.14364400  0.32864100  1
  C  C151  1  0.32864100  0.18986400  0.14364400  1
  C  C152  1  0.70120900  0.65582200  0.90444600  1
  C  C153  1  0.09555400  0.20120900  0.84417800  1
  C  C154  1  0.15582200  0.59555400  0.29879100  1
  C  C155  1  0.20120900  0.84417800  0.09555400  1
  C  C156  1  0.59555400  0.29879100  0.15582200  1
  C  C157  1  0.65582200  0.90444600  0.70120900  1
  C  C158  1  0.29879100  0.15582200  0.59555400  1
  C  C159  1  0.90444600  0.70120900  0.65582200  1
  C  C160  1  0.84417800  0.09555400  0.20120900  1
  C  C161  1  0.79879100  0.34417800  0.40444600  1
  C  C162  1  0.40444600  0.79879100  0.34417800  1
  C  C163  1  0.34417800  0.40444600  0.79879100  1
  C  C164  1  0.74083400  0.58699200  0.76376400  1
  C  C165  1  0.23623600  0.24083400  0.91300800  1
  C  C166  1  0.08699200  0.73623600  0.25916600  1
  C  C167  1  0.24083400  0.91300800  0.23623600  1
  C  C168  1  0.73623600  0.25916600  0.08699200  1
  C  C169  1  0.58699200  0.76376400  0.74083400  1
  C  C170  1  0.25916600  0.08699200  0.73623600  1
  C  C171  1  0.76376400  0.74083400  0.58699200  1
  C  C172  1  0.91300800  0.23623600  0.24083400  1
  C  C173  1  0.75916600  0.41300800  0.26376400  1
  C  C174  1  0.26376400  0.75916600  0.41300800  1
  C  C175  1  0.41300800  0.26376400  0.75916600  1
  C  C176  1  0.49452200  0.88667000  0.68756700  1
  C  C177  1  0.31243300  0.99452200  0.61333000  1
  C  C178  1  0.38667000  0.81243300  0.50547800  1
  C  C179  1  0.99452200  0.61333000  0.31243300  1
  C  C180  1  0.81243300  0.50547800  0.38667000  1
  C  C181  1  0.88667000  0.68756700  0.49452200  1
  C  C182  1  0.50547800  0.38667000  0.81243300  1
  C  C183  1  0.68756700  0.49452200  0.88667000  1
  C  C184  1  0.61333000  0.31243300  0.99452200  1
  C  C185  1  0.00547800  0.11333000  0.18756700  1
  C  C186  1  0.18756700  0.00547800  0.11333000  1
  C  C187  1  0.11333000  0.18756700  0.00547800  1
  C  C188  1  0.10419200  0.61754500  0.52972200  1
  C  C189  1  0.47027800  0.60419200  0.88245500  1
  C  C190  1  0.11754500  0.97027800  0.89580800  1
  C  C191  1  0.60419200  0.88245500  0.47027800  1
  C  C192  1  0.97027800  0.89580800  0.11754500  1
  C  C193  1  0.61754500  0.52972200  0.10419200  1
  C  C194  1  0.89580800  0.11754500  0.97027800  1
  C  C195  1  0.52972200  0.10419200  0.61754500  1
  C  C196  1  0.88245500  0.47027800  0.60419200  1
  C  C197  1  0.39580800  0.38245500  0.02972200  1
  C  C198  1  0.02972200  0.39580800  0.38245500  1
  C  C199  1  0.38245500  0.02972200  0.39580800  1
