# generated using pymatgen
data_Cu(NiC5)2
_symmetry_space_group_name_H-M   'P 1'
_cell_length_a   6.73550700
_cell_length_b   8.81609042
_cell_length_c   10.22201832
_cell_angle_alpha   91.77111997
_cell_angle_beta   90.37089989
_cell_angle_gamma   90.37559295
_symmetry_Int_Tables_number   1
_chemical_formula_structural   Cu(NiC5)2
_chemical_formula_sum   'Cu4 Ni8 C40'
_cell_volume   606.67547182
_cell_formula_units_Z   4
loop_
 _symmetry_equiv_pos_site_id
 _symmetry_equiv_pos_as_xyz
  1  'x, y, z'
loop_
 _atom_site_type_symbol
 _atom_site_label
 _atom_site_symmetry_multiplicity
 _atom_site_fract_x
 _atom_site_fract_y
 _atom_site_fract_z
 _atom_site_occupancy
  Ni  Ni0  1  0.25493700  0.08283900  0.12180300  1
  Ni  Ni1  1  0.99863400  0.25978800  0.37422200  1
  Ni  Ni2  1  0.00212700  0.26151000  0.87399500  1
  Ni  Ni3  1  0.50132500  0.26173800  0.87467100  1
  Ni  Ni4  1  0.50284600  0.74091800  0.12560700  1
  Ni  Ni5  1  0.99577400  0.74002300  0.12574400  1
  Ni  Ni6  1  0.50171600  0.73765200  0.62326600  1
  Ni  Ni7  1  0.99951900  0.73753500  0.62268100  1
  Cu  Cu8  1  0.25461200  0.08719600  0.62230600  1
  Cu  Cu9  1  0.48009000  0.27322300  0.38265900  1
  Cu  Cu10  1  0.74206200  0.90852200  0.37767000  1
  Cu  Cu11  1  0.75011600  0.91048300  0.87255700  1
  C  C12  1  0.74707900  0.35351500  0.11182900  1
  C  C13  1  0.74744500  0.34712800  0.60567400  1
  C  C14  1  0.24936900  0.64767600  0.38569200  1
  C  C15  1  0.25124000  0.64972100  0.89014200  1
  C  C16  1  0.25246700  0.40952900  0.14919100  1
  C  C17  1  0.25019900  0.40626700  0.64300400  1
  C  C18  1  0.74369600  0.59243700  0.35160200  1
  C  C19  1  0.75166300  0.59191400  0.85206100  1
  C  C20  1  0.74859500  0.05295700  0.13818900  1
  C  C21  1  0.74961600  0.05003400  0.63697800  1
  C  C22  1  0.25884900  0.95448700  0.37277600  1
  C  C23  1  0.25056200  0.94272200  0.85855500  1
  C  C24  1  0.27524000  0.09770700  0.35194300  1
  C  C25  1  0.24881300  0.08688300  0.84180500  1
  C  C26  1  0.74989900  0.09012400  0.01580700  1
  C  C27  1  0.75046600  0.09119500  0.51561600  1
  C  C28  1  0.74439600  0.15846700  0.23028500  1
  C  C29  1  0.74638000  0.15363800  0.73112200  1
  C  C30  1  0.06465900  0.31401300  0.11050500  1
  C  C31  1  0.43440800  0.31588000  0.10261400  1
  C  C32  1  0.06254100  0.30816600  0.60631800  1
  C  C33  1  0.42982700  0.30539300  0.59875700  1
  C  C34  1  0.26380500  0.42960300  0.30241400  1
  C  C35  1  0.72946300  0.43395200  0.41388500  1
  C  C36  1  0.25624600  0.43458400  0.79450900  1
  C  C37  1  0.75456500  0.43853700  0.92081600  1
  C  C38  1  0.24813800  0.56830400  0.08869700  1
  C  C39  1  0.74446600  0.56778700  0.19978100  1
  C  C40  1  0.25109100  0.56116500  0.57616400  1
  C  C41  1  0.75099600  0.56143500  0.70120500  1
  C  C42  1  0.56725900  0.69774800  0.39125200  1
  C  C43  1  0.93262300  0.68471300  0.39457200  1
  C  C44  1  0.56764800  0.69061500  0.89110700  1
  C  C45  1  0.93585200  0.69331600  0.89110300  1
  C  C46  1  0.24872700  0.85626200  0.27354100  1
  C  C47  1  0.25144700  0.84914800  0.75800100  1
  C  C48  1  0.25116600  0.90432000  0.49076300  1
  C  C49  1  0.25193900  0.88637400  0.97570600  1
  C  C50  1  0.75175500  0.91204800  0.17147800  1
  C  C51  1  0.75164200  0.90880800  0.66736200  1
