# generated using pymatgen
data_Cu5Ni5C13
_symmetry_space_group_name_H-M   'P 1'
_cell_length_a   3.66179200
_cell_length_b   8.88950129
_cell_length_c   15.45324897
_cell_angle_alpha   103.82288907
_cell_angle_beta   90.89555733
_cell_angle_gamma   92.06578300
_symmetry_Int_Tables_number   1
_chemical_formula_structural   Cu5Ni5C13
_chemical_formula_sum   'Cu10 Ni10 C26'
_cell_volume   487.98852065
_cell_formula_units_Z   2
loop_
 _symmetry_equiv_pos_site_id
 _symmetry_equiv_pos_as_xyz
  1  'x, y, z'
loop_
 _atom_site_type_symbol
 _atom_site_label
 _atom_site_symmetry_multiplicity
 _atom_site_fract_x
 _atom_site_fract_y
 _atom_site_fract_z
 _atom_site_occupancy
  C  C0  1  0.92028500  0.52658800  0.52540700  1
  C  C1  1  0.14370100  0.02406100  0.01920900  1
  C  C2  1  0.74606900  0.69267200  0.42211900  1
  C  C3  1  0.06549600  0.23780300  0.93590700  1
  C  C4  1  0.81926700  0.00807000  0.40074700  1
  C  C5  1  0.19869500  0.48667700  0.90236400  1
  C  C6  1  0.72700300  0.58565300  0.12359300  1
  C  C7  1  0.23575700  0.10915700  0.62528700  1
  C  C8  1  0.10907800  0.26729700  0.60848800  1
  C  C9  1  0.83381800  0.75174300  0.11178600  1
  C  C10  1  0.68212800  0.66424600  0.84237600  1
  C  C11  1  0.34025000  0.17564600  0.34740300  1
  C  C12  1  0.75529400  0.63686900  0.73734100  1
  C  C13  1  0.26831700  0.15483300  0.23811800  1
  C  C14  1  0.48615100  0.25679400  0.76623500  1
  C  C15  1  0.49914400  0.75024400  0.26558200  1
  C  C16  1  0.69510000  0.78001400  0.27024400  1
  C  C17  1  0.28765400  0.27535000  0.76683900  1
  C  C18  1  0.05016500  0.56190100  0.37316200  1
  C  C19  1  0.99697800  0.06301900  0.87240700  1
  C  C20  1  0.72657000  0.84352800  0.79701000  1
  C  C21  1  0.28234400  0.34410700  0.30226600  1
  C  C22  1  0.27378100  0.11301500  0.48449100  1
  C  C23  1  0.75181100  0.59220800  0.98671600  1
  C  C24  1  0.39108400  0.79428400  0.61112700  1
  C  C25  1  0.68643700  0.29508600  0.13896100  1
  Ni  Ni26  1  0.33734100  0.07114800  0.41873100  1
  Ni  Ni27  1  0.69059100  0.54633900  0.92033800  1
  Ni  Ni28  1  0.63383600  0.70410100  0.78840000  1
  Ni  Ni29  1  0.37759400  0.22268500  0.29400300  1
  Ni  Ni30  1  0.87433200  0.64172700  0.08857700  1
  Ni  Ni31  1  0.11962900  0.15668700  0.58173600  1
  Ni  Ni32  1  0.94319200  0.63079800  0.43547200  1
  Ni  Ni33  1  0.13949400  0.13005600  0.92885200  1
  Ni  Ni34  1  0.04881700  0.95113700  0.38623700  1
  Ni  Ni35  1  0.96013800  0.42648300  0.89594900  1
  Cu  Cu36  1  0.19419900  0.47839100  0.30305500  1
  Cu  Cu37  1  0.79555900  0.96820500  0.79991500  1
  Cu  Cu38  1  0.89908600  0.33879400  0.46885900  1
  Cu  Cu39  1  0.12721500  0.83086300  0.97418000  1
  Cu  Cu40  1  0.93313200  0.53383900  0.63857500  1
  Cu  Cu41  1  0.13765900  0.08468700  0.13547000  1
  Cu  Cu42  1  0.19355800  0.86112900  0.61627900  1
  Cu  Cu43  1  0.55044200  0.36087600  0.11212800  1
  Cu  Cu44  1  0.43054800  0.57367600  0.53580800  1
  Cu  Cu45  1  0.64126000  0.04331300  0.02445100  1
