# generated using pymatgen
data_CuNiC
_symmetry_space_group_name_H-M   'P 1'
_cell_length_a   6.25934900
_cell_length_b   9.45679051
_cell_length_c   9.46212181
_cell_angle_alpha   90.38815914
_cell_angle_beta   90.21974053
_cell_angle_gamma   90.01875165
_symmetry_Int_Tables_number   1
_chemical_formula_structural   CuNiC
_chemical_formula_sum   'Cu16 Ni16 C16'
_cell_volume   560.07770162
_cell_formula_units_Z   16
loop_
 _symmetry_equiv_pos_site_id
 _symmetry_equiv_pos_as_xyz
  1  'x, y, z'
loop_
 _atom_site_type_symbol
 _atom_site_label
 _atom_site_symmetry_multiplicity
 _atom_site_fract_x
 _atom_site_fract_y
 _atom_site_fract_z
 _atom_site_occupancy
  C  C0  1  0.48038000  0.74160300  0.74151000  1
  C  C1  1  0.01714900  0.75837200  0.75850200  1
  C  C2  1  0.48109200  0.25066200  0.74919900  1
  C  C3  1  0.01825200  0.24968700  0.75038000  1
  C  C4  1  0.23021500  0.00812800  0.98995800  1
  C  C5  1  0.76978500  0.99187200  0.01004200  1
  C  C6  1  0.27466200  0.50888500  0.98968600  1
  C  C7  1  0.72533800  0.49111500  0.01031400  1
  C  C8  1  0.51962000  0.25839700  0.25849000  1
  C  C9  1  0.98285100  0.24162800  0.24149800  1
  C  C10  1  0.51890800  0.74933800  0.25080100  1
  C  C11  1  0.98174800  0.75031300  0.24962000  1
  C  C12  1  0.27461100  0.99111900  0.51043300  1
  C  C13  1  0.72538900  0.00888100  0.48956700  1
  C  C14  1  0.26821000  0.49189700  0.50960100  1
  C  C15  1  0.73179000  0.50810300  0.49039900  1
  Ni  Ni16  1  0.24661700  0.15286300  0.84644800  1
  Ni  Ni17  1  0.24814800  0.65306600  0.84656000  1
  Ni  Ni18  1  0.99598000  0.90256900  0.90303400  1
  Ni  Ni19  1  0.50303300  0.40054600  0.89956300  1
  Ni  Ni20  1  0.00402000  0.09743100  0.09696600  1
  Ni  Ni21  1  0.49696700  0.59945400  0.10043700  1
  Ni  Ni22  1  0.75185200  0.34693400  0.15344000  1
  Ni  Ni23  1  0.75338300  0.84713700  0.15355200  1
  Ni  Ni24  1  0.75256600  0.15262300  0.34611500  1
  Ni  Ni25  1  0.75988600  0.65234000  0.34720300  1
  Ni  Ni26  1  0.49631800  0.89977800  0.40047000  1
  Ni  Ni27  1  0.49636200  0.40281600  0.40304300  1
  Ni  Ni28  1  0.50368200  0.10022200  0.59953000  1
  Ni  Ni29  1  0.50363800  0.59718400  0.59695700  1
  Ni  Ni30  1  0.24743400  0.84737700  0.65388500  1
  Ni  Ni31  1  0.24011400  0.34766000  0.65279700  1
  Cu  Cu32  1  0.75502000  0.15381900  0.84688600  1
  Cu  Cu33  1  0.75324500  0.65328100  0.84720300  1
  Cu  Cu34  1  0.50348900  0.90393000  0.90337600  1
  Cu  Cu35  1  0.99630200  0.40467500  0.90439600  1
  Cu  Cu36  1  0.49651100  0.09607000  0.09662400  1
  Cu  Cu37  1  0.00369800  0.59532500  0.09560400  1
  Cu  Cu38  1  0.24498000  0.84618100  0.15311400  1
  Cu  Cu39  1  0.24675500  0.34671900  0.15279700  1
  Cu  Cu40  1  0.24631600  0.15354000  0.34731700  1
  Cu  Cu41  1  0.23853600  0.65301500  0.34779100  1
  Cu  Cu42  1  0.00396100  0.90484100  0.40416100  1
  Cu  Cu43  1  0.00329100  0.40350500  0.40296300  1
  Cu  Cu44  1  0.99603900  0.09515900  0.59583900  1
  Cu  Cu45  1  0.99670900  0.59649500  0.59703700  1
  Cu  Cu46  1  0.75368400  0.84646000  0.65268300  1
  Cu  Cu47  1  0.76146400  0.34698500  0.65220900  1
