# generated using pymatgen
data_Cu2Ni8C13
_symmetry_space_group_name_H-M   'P 1'
_cell_length_a   5.63782306
_cell_length_b   5.63782306
_cell_length_c   14.41607742
_cell_angle_alpha   84.30782170
_cell_angle_beta   84.30782170
_cell_angle_gamma   79.77450093
_symmetry_Int_Tables_number   1
_chemical_formula_structural   Cu2Ni8C13
_chemical_formula_sum   'Cu4 Ni16 C26'
_cell_volume   447.15458237
_cell_formula_units_Z   2
loop_
 _symmetry_equiv_pos_site_id
 _symmetry_equiv_pos_as_xyz
  1  'x, y, z'
loop_
 _atom_site_type_symbol
 _atom_site_label
 _atom_site_symmetry_multiplicity
 _atom_site_fract_x
 _atom_site_fract_y
 _atom_site_fract_z
 _atom_site_occupancy
  C  C0  1  0.40351100  0.75577000  0.56357800  1
  C  C1  1  0.24423000  0.59648900  0.93642200  1
  C  C2  1  0.59648900  0.24423000  0.43642200  1
  C  C3  1  0.75577000  0.40351100  0.06357800  1
  C  C4  1  0.04180500  0.95819500  0.75000000  1
  C  C5  1  0.95819500  0.04180500  0.25000000  1
  Ni  Ni6  1  0.53398000  0.21431400  0.62804100  1
  Ni  Ni7  1  0.78568600  0.46602000  0.87195900  1
  Ni  Ni8  1  0.46602000  0.78568600  0.37195900  1
  Ni  Ni9  1  0.21431400  0.53398000  0.12804100  1
  Ni  Ni10  1  0.74234800  0.36228000  0.62431300  1
  Ni  Ni11  1  0.63772000  0.25765200  0.87568700  1
  Ni  Ni12  1  0.25765200  0.63772000  0.37568700  1
  Ni  Ni13  1  0.36228000  0.74234800  0.12431300  1
  Ni  Ni14  1  0.85106500  0.76389700  0.44075400  1
  Ni  Ni15  1  0.23610300  0.14893500  0.05924600  1
  Ni  Ni16  1  0.14893500  0.23610300  0.55924600  1
  Ni  Ni17  1  0.76389700  0.85106500  0.94075400  1
  Ni  Ni18  1  0.88877300  0.80091300  0.54595000  1
  Ni  Ni19  1  0.19908700  0.11122700  0.95405000  1
  Ni  Ni20  1  0.11122700  0.19908700  0.45405000  1
  Ni  Ni21  1  0.80091300  0.88877300  0.04595000  1
  Cu  Cu22  1  0.48411400  0.96434400  0.78598600  1
  Cu  Cu23  1  0.03565600  0.51588600  0.71401400  1
  Cu  Cu24  1  0.51588600  0.03565600  0.21401400  1
  Cu  Cu25  1  0.96434400  0.48411400  0.28598600  1
  C  C26  1  0.29129900  0.95869800  0.84537400  1
  C  C27  1  0.04130200  0.70870100  0.65462600  1
  C  C28  1  0.70870100  0.04130100  0.15462600  1
  C  C29  1  0.95869800  0.29129900  0.34537400  1
  C  C30  1  0.05145400  0.54235000  0.80066200  1
  C  C31  1  0.45765000  0.94854600  0.69933800  1
  C  C32  1  0.94854600  0.45765000  0.19933800  1
  C  C33  1  0.54235000  0.05145400  0.30066200  1
  C  C34  1  0.68647100  0.98919400  0.81673600  1
  C  C35  1  0.01080600  0.31352900  0.68326400  1
  C  C36  1  0.31352900  0.01080600  0.18326400  1
  C  C37  1  0.98919400  0.68647100  0.31673600  1
  C  C38  1  0.59378900  0.35594400  0.59400200  1
  C  C39  1  0.64405600  0.40621100  0.90599800  1
  C  C40  1  0.40621100  0.64405600  0.40599800  1
  C  C41  1  0.35594400  0.59378900  0.09400200  1
  C  C42  1  0.22151100  0.15052800  0.50409600  1
  C  C43  1  0.84947200  0.77848900  0.99590400  1
  C  C44  1  0.77848900  0.84947200  0.49590400  1
  C  C45  1  0.15052800  0.22151100  0.00409600  1
