# generated using pymatgen
data_Cu2Ni3C19
_symmetry_space_group_name_H-M   'P 1'
_cell_length_a   6.14913947
_cell_length_b   6.14913947
_cell_length_c   8.96051398
_cell_angle_alpha   88.78493198
_cell_angle_beta   88.78493198
_cell_angle_gamma   60.30944358
_symmetry_Int_Tables_number   1
_chemical_formula_structural   Cu2Ni3C19
_chemical_formula_sum   'Cu2 Ni3 C19'
_cell_volume   294.24383510
_cell_formula_units_Z   1
loop_
 _symmetry_equiv_pos_site_id
 _symmetry_equiv_pos_as_xyz
  1  'x, y, z'
loop_
 _atom_site_type_symbol
 _atom_site_label
 _atom_site_symmetry_multiplicity
 _atom_site_fract_x
 _atom_site_fract_y
 _atom_site_fract_z
 _atom_site_occupancy
  Ni  Ni0  1  0.17579700  0.17579700  0.78619200  1
  Ni  Ni1  1  0.34113800  0.83192300  0.29022000  1
  Ni  Ni2  1  0.83192300  0.34113800  0.29022000  1
  Cu  Cu3  1  0.32457300  0.32457300  0.50803400  1
  Cu  Cu4  1  0.66343400  0.66343400  0.02257600  1
  C  C5  1  0.17631000  0.67249000  0.79361200  1
  C  C6  1  0.67249000  0.17631000  0.79361200  1
  C  C7  1  0.83822200  0.83822200  0.29756600  1
  C  C8  1  0.17455400  0.66412500  0.39951000  1
  C  C9  1  0.47418000  0.47418000  0.63645500  1
  C  C10  1  0.31172900  0.31172900  0.91009000  1
  C  C11  1  0.01292500  0.01292500  0.67885000  1
  C  C12  1  0.00814000  0.00814000  0.18804700  1
  C  C13  1  0.66412500  0.17455400  0.39951000  1
  C  C14  1  0.05438700  0.45768400  0.65610300  1
  C  C15  1  0.45768400  0.05438700  0.65610300  1
  C  C16  1  0.82698100  0.82698100  0.90745100  1
  C  C17  1  0.16678000  0.16678000  0.39101300  1
  C  C18  1  0.51603900  0.94380100  0.16012000  1
  C  C19  1  0.94380100  0.51603900  0.16012000  1
  C  C20  1  0.65438700  0.65438700  0.40106300  1
  C  C21  1  0.34658000  0.83943000  0.89540500  1
  C  C22  1  0.52622100  0.52622100  0.16707200  1
  C  C23  1  0.83943000  0.34658000  0.89540500  1
