# generated using pymatgen
data_Cu5Ni7C4
_symmetry_space_group_name_H-M   'P 1'
_cell_length_a   5.23796300
_cell_length_b   5.35790574
_cell_length_c   17.34032963
_cell_angle_alpha   89.90785463
_cell_angle_beta   98.26102681
_cell_angle_gamma   119.15207435
_symmetry_Int_Tables_number   1
_chemical_formula_structural   Cu5Ni7C4
_chemical_formula_sum   'Cu10 Ni14 C8'
_cell_volume   419.27553716
_cell_formula_units_Z   2
loop_
 _symmetry_equiv_pos_site_id
 _symmetry_equiv_pos_as_xyz
  1  'x, y, z'
loop_
 _atom_site_type_symbol
 _atom_site_label
 _atom_site_symmetry_multiplicity
 _atom_site_fract_x
 _atom_site_fract_y
 _atom_site_fract_z
 _atom_site_occupancy
  C  C0  1  0.27002000  0.65243800  0.86757900  1
  C  C1  1  0.25282800  0.16512000  0.36640300  1
  C  C2  1  0.55280000  0.28799800  0.74484500  1
  C  C3  1  0.53763100  0.79903200  0.24491500  1
  C  C4  1  0.76648800  0.91404700  0.62416400  1
  C  C5  1  0.75419800  0.42685600  0.12298000  1
  C  C6  1  0.95616000  0.01055000  0.99221700  1
  C  C7  1  0.00570500  0.52120700  0.48820300  1
  Ni  Ni8  1  0.04426100  0.29539400  0.94111400  1
  Ni  Ni9  1  0.05582600  0.80726200  0.44151900  1
  Ni  Ni10  1  0.43835100  0.92343500  0.81342700  1
  Ni  Ni11  1  0.07832600  0.33274200  0.42360200  1
  Ni  Ni12  1  0.59161200  0.79199200  0.95924800  1
  Ni  Ni13  1  0.55187300  0.53902600  0.68774400  1
  Ni  Ni14  1  0.43443600  0.43459000  0.31277600  1
  Ni  Ni15  1  0.59394400  0.05950900  0.67080800  1
  Ni  Ni16  1  0.58920900  0.57819400  0.16909300  1
  Ni  Ni17  1  0.90365600  0.44108100  0.79380600  1
  Ni  Ni18  1  0.89037700  0.95479700  0.29456600  1
  Ni  Ni19  1  0.54257300  0.05113600  0.18794800  1
  Ni  Ni20  1  0.94772700  0.67794300  0.06612400  1
  Ni  Ni21  1  0.94216700  0.16601800  0.56618500  1
  Cu  Cu22  1  0.07619900  0.81968700  0.92281700  1
  Cu  Cu23  1  0.08470800  0.02375200  0.70698400  1
  Cu  Cu24  1  0.07598000  0.53083100  0.20704000  1
  Cu  Cu25  1  0.40702900  0.39557000  0.83199700  1
  Cu  Cu26  1  0.39595000  0.90617200  0.33123400  1
  Cu  Cu27  1  0.41260800  0.68654300  0.54583500  1
  Cu  Cu28  1  0.58364700  0.29355500  0.46010000  1
  Cu  Cu29  1  0.42690700  0.19525400  0.04560200  1
  Cu  Cu30  1  0.91259300  0.65359000  0.58303500  1
  Cu  Cu31  1  0.92421400  0.16467600  0.08608900  1
