# generated using pymatgen
data_Cu7Ni3C26
_symmetry_space_group_name_H-M   'P 1'
_cell_length_a   20.70436916
_cell_length_b   2.87608700
_cell_length_c   5.89634043
_cell_angle_alpha   90.00000000
_cell_angle_beta   84.29930674
_cell_angle_gamma   90.00000000
_symmetry_Int_Tables_number   1
_chemical_formula_structural   Cu7Ni3C26
_chemical_formula_sum   'Cu7 Ni3 C26'
_cell_volume   349.37625231
_cell_formula_units_Z   1
loop_
 _symmetry_equiv_pos_site_id
 _symmetry_equiv_pos_as_xyz
  1  'x, y, z'
loop_
 _atom_site_type_symbol
 _atom_site_label
 _atom_site_symmetry_multiplicity
 _atom_site_fract_x
 _atom_site_fract_y
 _atom_site_fract_z
 _atom_site_occupancy
  C  C0  1  0.10000000  0.50000000  0.20000000  1
  C  C1  1  0.28539900  0.50000000  0.55677500  1
  C  C2  1  0.40398100  0.00000000  0.80079000  1
  C  C3  1  0.60000000  0.00000000  0.20000000  1
  C  C4  1  0.79601900  0.00000000  0.59921000  1
  C  C5  1  0.91460100  0.50000000  0.84322500  1
  Ni  Ni6  1  0.40037800  0.00000000  0.27889200  1
  Ni  Ni7  1  0.60000000  0.00000000  0.70000000  1
  Ni  Ni8  1  0.79962200  0.00000000  0.12110800  1
  Cu  Cu9  1  0.00177300  0.00000000  0.50183200  1
  Cu  Cu10  1  0.10000000  0.50000000  0.70000000  1
  Cu  Cu11  1  0.19822700  0.00000000  0.89816800  1
  Cu  Cu12  1  0.29579100  0.50000000  0.09344200  1
  Cu  Cu13  1  0.49908800  0.50000000  0.49655600  1
  Cu  Cu14  1  0.70091200  0.50000000  0.90344400  1
  Cu  Cu15  1  0.90420900  0.50000000  0.30655800  1
  C  C16  1  0.00732200  0.50000000  0.70926800  1
  C  C17  1  0.09264100  0.00000000  0.48278300  1
  C  C18  1  0.10735900  0.00000000  0.91721700  1
  C  C19  1  0.20255400  0.50000000  0.10541800  1
  C  C20  1  0.19267800  0.50000000  0.69073200  1
  C  C21  1  0.30224200  0.00000000  0.31429100  1
  C  C22  1  0.28975200  0.00000000  0.87512600  1
  C  C23  1  0.38939300  0.50000000  0.04964800  1
  C  C24  1  0.40698300  0.50000000  0.52262000  1
  C  C25  1  0.49851900  0.00000000  0.28777700  1
  C  C26  1  0.50118000  0.00000000  0.70620000  1
  C  C27  1  0.59046700  0.50000000  0.46635400  1
  C  C28  1  0.60953300  0.50000000  0.93364600  1
  C  C29  1  0.70148100  0.00000000  0.11222300  1
  C  C30  1  0.69882000  0.00000000  0.69380000  1
  C  C31  1  0.81060700  0.50000000  0.35035200  1
  C  C32  1  0.79301700  0.50000000  0.87738000  1
  C  C33  1  0.89775800  0.00000000  0.08570900  1
  C  C34  1  0.91024800  0.00000000  0.52487400  1
  C  C35  1  0.99744600  0.50000000  0.29458200  1
