# generated using pymatgen
data_Cu16Ni4C7
_symmetry_space_group_name_H-M   'P 1'
_cell_length_a   9.96982410
_cell_length_b   9.94947012
_cell_length_c   9.76889809
_cell_angle_alpha   60.73564224
_cell_angle_beta   60.52756896
_cell_angle_gamma   58.73678880
_symmetry_Int_Tables_number   1
_chemical_formula_structural   Cu16Ni4C7
_chemical_formula_sum   'Cu32 Ni8 C14'
_cell_volume   684.70302063
_cell_formula_units_Z   2
loop_
 _symmetry_equiv_pos_site_id
 _symmetry_equiv_pos_as_xyz
  1  'x, y, z'
loop_
 _atom_site_type_symbol
 _atom_site_label
 _atom_site_symmetry_multiplicity
 _atom_site_fract_x
 _atom_site_fract_y
 _atom_site_fract_z
 _atom_site_occupancy
  C  C0  1  0.96313300  0.53686700  0.96313300  1
  C  C1  1  0.96228400  0.53771600  0.53771600  1
  C  C2  1  0.71228400  0.28771600  0.28771600  1
  C  C3  1  0.71313300  0.28686700  0.71313300  1
  C  C4  1  0.53686700  0.96313300  0.53686700  1
  C  C5  1  0.53771600  0.96228400  0.96228400  1
  C  C6  1  0.28771600  0.71228400  0.71228400  1
  C  C7  1  0.28686700  0.71313300  0.28686700  1
  C  C8  1  0.12500000  0.62500000  0.12500000  1
  C  C9  1  0.62500000  0.12500000  0.12500000  1
  C  C10  1  0.12500000  0.12500000  0.12500000  1
  C  C11  1  0.12500000  0.12500000  0.62500000  1
  C  C12  1  0.50000000  0.50000000  0.50000000  1
  C  C13  1  0.75000000  0.75000000  0.75000000  1
  Ni  Ni14  1  0.90347000  0.27106200  0.91362200  1
  Ni  Ni15  1  0.97893800  0.34653000  0.33815500  1
  Ni  Ni16  1  0.91362200  0.91184500  0.90347000  1
  Ni  Ni17  1  0.91184500  0.91362200  0.27106200  1
  Ni  Ni18  1  0.33815500  0.33637800  0.97893800  1
  Ni  Ni19  1  0.33637800  0.33815500  0.34653000  1
  Ni  Ni20  1  0.27106200  0.90347000  0.91184500  1
  Ni  Ni21  1  0.34653000  0.97893800  0.33637800  1
  Cu  Cu22  1  0.01497500  0.27801300  0.93879200  1
  Cu  Cu23  1  0.56059400  0.56239800  0.30862800  1
  Cu  Cu24  1  0.76823500  0.26331500  0.03304400  1
  Cu  Cu25  1  0.98668500  0.48176500  0.31459300  1
  Cu  Cu26  1  0.03304400  0.93540700  0.76823500  1
  Cu  Cu27  1  0.97145300  0.32521700  0.22208300  1
  Cu  Cu28  1  0.30862800  0.56838100  0.56059400  1
  Cu  Cu29  1  0.56239800  0.56059400  0.56838100  1
  Cu  Cu30  1  0.48124700  0.22208300  0.32521700  1
  Cu  Cu31  1  0.93540700  0.03304400  0.26331500  1
  Cu  Cu32  1  0.97198700  0.23502500  0.48178000  1
  Cu  Cu33  1  0.56838100  0.30862800  0.56239800  1
  Cu  Cu34  1  0.93879200  0.76822000  0.01497500  1
  Cu  Cu35  1  0.76822000  0.93879200  0.27801300  1
  Cu  Cu36  1  0.92478300  0.27854700  0.76875300  1
  Cu  Cu37  1  0.22208300  0.48124700  0.97145300  1
  Cu  Cu38  1  0.02791700  0.76875300  0.27854700  1
  Cu  Cu39  1  0.32521700  0.97145300  0.48124700  1
  Cu  Cu40  1  0.48178000  0.31120800  0.97198700  1
  Cu  Cu41  1  0.31120800  0.48178000  0.23502500  1
  Cu  Cu42  1  0.68161900  0.94137200  0.68760200  1
  Cu  Cu43  1  0.27801300  0.01497500  0.76822000  1
  Cu  Cu44  1  0.31459300  0.21695600  0.98668500  1
  Cu  Cu45  1  0.76875300  0.02791700  0.92478300  1
  Cu  Cu46  1  0.68760200  0.68940600  0.68161900  1
  Cu  Cu47  1  0.94137200  0.68161900  0.68940600  1
  Cu  Cu48  1  0.27854700  0.92478300  0.02791700  1
  Cu  Cu49  1  0.21695600  0.31459300  0.48176500  1
  Cu  Cu50  1  0.26331500  0.76823500  0.93540700  1
  Cu  Cu51  1  0.48176500  0.98668500  0.21695600  1
  Cu  Cu52  1  0.68940600  0.68760200  0.94137200  1
  Cu  Cu53  1  0.23502500  0.97198700  0.31120800  1
