# generated using pymatgen
data_Cu3Ni4C13
_symmetry_space_group_name_H-M   'P 1'
_cell_length_a   15.27624400
_cell_length_b   15.27624400
_cell_length_c   14.06105300
_cell_angle_alpha   90.00000000
_cell_angle_beta   90.00000000
_cell_angle_gamma   90.00000000
_symmetry_Int_Tables_number   1
_chemical_formula_structural   Cu3Ni4C13
_chemical_formula_sum   'Cu30 Ni40 C130'
_cell_volume   3281.33838021
_cell_formula_units_Z   10
loop_
 _symmetry_equiv_pos_site_id
 _symmetry_equiv_pos_as_xyz
  1  'x, y, z'
loop_
 _atom_site_type_symbol
 _atom_site_label
 _atom_site_symmetry_multiplicity
 _atom_site_fract_x
 _atom_site_fract_y
 _atom_site_fract_z
 _atom_site_occupancy
  C  C0  1  0.50000000  0.50000000  0.25000000  1
  C  C1  1  0.50000000  0.50000000  0.75000000  1
  C  C2  1  0.70331700  0.07751900  0.24869600  1
  C  C3  1  0.29668300  0.92248100  0.24869600  1
  C  C4  1  0.07751900  0.29668300  0.74869600  1
  C  C5  1  0.92248100  0.70331700  0.74869600  1
  C  C6  1  0.29668300  0.92248100  0.75130400  1
  C  C7  1  0.70331700  0.07751900  0.75130400  1
  C  C8  1  0.92248100  0.70331700  0.25130400  1
  C  C9  1  0.07751900  0.29668300  0.25130400  1
  C  C10  1  0.51987100  0.35467700  0.33295900  1
  C  C11  1  0.48012900  0.64532300  0.33295900  1
  C  C12  1  0.35467700  0.48012900  0.83295900  1
  C  C13  1  0.64532300  0.51987100  0.83295900  1
  C  C14  1  0.48012900  0.64532300  0.66704100  1
  C  C15  1  0.51987100  0.35467700  0.66704100  1
  C  C16  1  0.64532300  0.51987100  0.16704100  1
  C  C17  1  0.35467700  0.48012900  0.16704100  1
  C  C18  1  0.62426500  0.40232100  0.30383500  1
  C  C19  1  0.37573500  0.59767900  0.30383500  1
  C  C20  1  0.40232100  0.37573500  0.80383500  1
  C  C21  1  0.59767900  0.62426500  0.80383500  1
  C  C22  1  0.37573500  0.59767900  0.69616500  1
  C  C23  1  0.62426500  0.40232100  0.69616500  1
  C  C24  1  0.59767900  0.62426500  0.19616500  1
  C  C25  1  0.40232100  0.37573500  0.19616500  1
  C  C26  1  0.56361400  0.44275100  0.40343200  1
  C  C27  1  0.43638600  0.55724900  0.40343200  1
  C  C28  1  0.44275100  0.43638600  0.90343200  1
  C  C29  1  0.55724900  0.56361400  0.90343200  1
  C  C30  1  0.43638600  0.55724900  0.59656800  1
  C  C31  1  0.56361400  0.44275100  0.59656800  1
  C  C32  1  0.55724900  0.56361400  0.09656800  1
  C  C33  1  0.44275100  0.43638600  0.09656800  1
  C  C34  1  0.84691700  0.03200600  0.17565800  1
  C  C35  1  0.15308300  0.96799400  0.17565800  1
  C  C36  1  0.03200600  0.15308300  0.67565800  1
  C  C37  1  0.96799400  0.84691700  0.67565800  1
  C  C38  1  0.15308300  0.96799400  0.82434200  1
  C  C39  1  0.84691700  0.03200600  0.82434200  1
  C  C40  1  0.96799400  0.84691700  0.32434200  1
  C  C41  1  0.03200600  0.15308300  0.32434200  1
  C  C42  1  0.85612200  0.04046200  0.30323300  1
  C  C43  1  0.14387800  0.95953800  0.30323300  1
  C  C44  1  0.04046200  0.14387800  0.80323300  1
  C  C45  1  0.95953800  0.85612200  0.80323300  1
  C  C46  1  0.14387800  0.95953800  0.69676700  1
  C  C47  1  0.85612200  0.04046200  0.69676700  1
  C  C48  1  0.95953800  0.85612200  0.19676700  1
  C  C49  1  0.04046200  0.14387800  0.19676700  1
  C  C50  1  0.80422700  0.94689400  0.25090900  1
  C  C51  1  0.19577300  0.05310600  0.25090900  1
  C  C52  1  0.94689400  0.19577300  0.75090900  1
  C  C53  1  0.05310600  0.80422700  0.75090900  1
  C  C54  1  0.19577300  0.05310600  0.74909100  1
  C  C55  1  0.80422700  0.94689400  0.74909100  1
  C  C56  1  0.05310600  0.80422700  0.24909100  1
  C  C57  1  0.94689400  0.19577300  0.24909100  1
  C  C58  1  0.76171900  0.22578300  0.29744900  1
  C  C59  1  0.23828100  0.77421700  0.29744900  1
  C  C60  1  0.22578300  0.23828100  0.79744900  1
  C  C61  1  0.77421700  0.76171900  0.79744900  1
  C  C62  1  0.23828100  0.77421700  0.70255100  1
  C  C63  1  0.76171900  0.22578300  0.70255100  1
  C  C64  1  0.77421700  0.76171900  0.20255100  1
  C  C65  1  0.22578300  0.23828100  0.20255100  1
  C  C66  1  0.75264600  0.21718600  0.17013000  1
  C  C67  1  0.24735400  0.78281400  0.17013000  1
  C  C68  1  0.21718600  0.24735400  0.67013000  1
  C  C69  1  0.78281400  0.75264600  0.67013000  1
  C  C70  1  0.24735400  0.78281400  0.82987000  1
  C  C71  1  0.75264600  0.21718600  0.82987000  1
  C  C72  1  0.78281400  0.75264600  0.32987000  1
  C  C73  1  0.21718600  0.24735400  0.32987000  1
  C  C74  1  0.65663800  0.23534500  0.24043500  1
  C  C75  1  0.34336200  0.76465500  0.24043500  1
  C  C76  1  0.23534500  0.34336200  0.74043500  1
  C  C77  1  0.76465500  0.65663800  0.74043500  1
  C  C78  1  0.34336200  0.76465500  0.75956500  1
  C  C79  1  0.65663800  0.23534500  0.75956500  1
  C  C80  1  0.76465500  0.65663800  0.25956500  1
  C  C81  1  0.23534500  0.34336200  0.25956500  1
  C  C82  1  0.58597300  0.08312600  0.37378900  1
  C  C83  1  0.41402700  0.91687400  0.37378900  1
  C  C84  1  0.08312600  0.41402700  0.87378900  1
  C  C85  1  0.91687400  0.58597300  0.87378900  1
  C  C86  1  0.41402700  0.91687400  0.62621100  1
  C  C87  1  0.58597300  0.08312600  0.62621100  1
  C  C88  1  0.91687400  0.58597300  0.12621100  1
  C  C89  1  0.08312600  0.41402700  0.12621100  1
  C  C90  1  0.64078200  0.97868500  0.37472800  1
  C  C91  1  0.35921800  0.02131500  0.37472800  1
  C  C92  1  0.97868500  0.35921800  0.87472800  1
  C  C93  1  0.02131500  0.64078200  0.87472800  1
  C  C94  1  0.35921800  0.02131500  0.62527200  1
  C  C95  1  0.64078200  0.97868500  0.62527200  1
  C  C96  1  0.02131500  0.64078200  0.12527200  1
  C  C97  1  0.97868500  0.35921800  0.12527200  1
  C  C98  1  0.69309900  0.07301700  0.42605900  1
  C  C99  1  0.30690100  0.92698300  0.42605900  1
  C  C100  1  0.07301700  0.30690100  0.92605900  1
  C  C101  1  0.92698300  0.69309900  0.92605900  1
  C  C102  1  0.30690100  0.92698300  0.57394100  1
  C  C103  1  0.69309900  0.07301700  0.57394100  1
  C  C104  1  0.92698300  0.69309900  0.07394100  1
  C  C105  1  0.07301700  0.30690100  0.07394100  1
  C  C106  1  0.61974500  0.96815600  0.14845500  1
  C  C107  1  0.38025500  0.03184400  0.14845500  1
  C  C108  1  0.96815600  0.38025500  0.64845500  1
  C  C109  1  0.03184400  0.61974500  0.64845500  1
  C  C110  1  0.38025500  0.03184400  0.85154500  1
  C  C111  1  0.61974500  0.96815600  0.85154500  1
  C  C112  1  0.03184400  0.61974500  0.35154500  1
  C  C113  1  0.96815600  0.38025500  0.35154500  1
  C  C114  1  0.56740700  0.07400500  0.14740600  1
  C  C115  1  0.43259300  0.92599500  0.14740600  1
  C  C116  1  0.07400500  0.43259300  0.64740600  1
  C  C117  1  0.92599500  0.56740700  0.64740600  1
  C  C118  1  0.43259300  0.92599500  0.85259400  1
  C  C119  1  0.56740700  0.07400500  0.85259400  1
  C  C120  1  0.92599500  0.56740700  0.35259400  1
  C  C121  1  0.07400500  0.43259300  0.35259400  1
  C  C122  1  0.66377500  0.05523500  0.07718900  1
  C  C123  1  0.33622500  0.94476500  0.07718900  1
  C  C124  1  0.05523500  0.33622500  0.57718900  1
  C  C125  1  0.94476500  0.66377500  0.57718900  1
  C  C126  1  0.33622500  0.94476500  0.92281100  1
  C  C127  1  0.66377500  0.05523500  0.92281100  1
  C  C128  1  0.94476500  0.66377500  0.42281100  1
  C  C129  1  0.05523500  0.33622500  0.42281100  1
  Ni  Ni130  1  0.55856200  0.41521400  0.33164200  1
  Ni  Ni131  1  0.44143800  0.58478600  0.33164200  1
  Ni  Ni132  1  0.41521400  0.44143800  0.83164200  1
  Ni  Ni133  1  0.58478600  0.55856200  0.83164200  1
  Ni  Ni134  1  0.44143800  0.58478600  0.66835800  1
  Ni  Ni135  1  0.55856200  0.41521400  0.66835800  1
  Ni  Ni136  1  0.58478600  0.55856200  0.16835800  1
  Ni  Ni137  1  0.41521400  0.44143800  0.16835800  1
  Ni  Ni138  1  0.81557700  0.01757900  0.24394200  1
  Ni  Ni139  1  0.18442300  0.98242100  0.24394200  1
  Ni  Ni140  1  0.01757900  0.18442300  0.74394200  1
  Ni  Ni141  1  0.98242100  0.81557700  0.74394200  1
  Ni  Ni142  1  0.18442300  0.98242100  0.75605800  1
  Ni  Ni143  1  0.81557700  0.01757900  0.75605800  1
  Ni  Ni144  1  0.98242100  0.81557700  0.25605800  1
  Ni  Ni145  1  0.01757900  0.18442300  0.25605800  1
  Ni  Ni146  1  0.72074400  0.20303100  0.23807600  1
  Ni  Ni147  1  0.27925600  0.79696900  0.23807600  1
  Ni  Ni148  1  0.20303100  0.27925600  0.73807600  1
  Ni  Ni149  1  0.79696900  0.72074400  0.73807600  1
  Ni  Ni150  1  0.27925600  0.79696900  0.76192400  1
  Ni  Ni151  1  0.72074400  0.20303100  0.76192400  1
  Ni  Ni152  1  0.79696900  0.72074400  0.26192400  1
  Ni  Ni153  1  0.20303100  0.27925600  0.26192400  1
  Ni  Ni154  1  0.64943700  0.04962100  0.36966400  1
  Ni  Ni155  1  0.35056300  0.95037900  0.36966400  1
  Ni  Ni156  1  0.04962100  0.35056300  0.86966400  1
  Ni  Ni157  1  0.95037900  0.64943700  0.86966400  1
  Ni  Ni158  1  0.35056300  0.95037900  0.63033600  1
  Ni  Ni159  1  0.64943700  0.04962100  0.63033600  1
  Ni  Ni160  1  0.95037900  0.64943700  0.13033600  1
  Ni  Ni161  1  0.04962100  0.35056300  0.13033600  1
  Ni  Ni162  1  0.63007400  0.03891300  0.14372000  1
  Ni  Ni163  1  0.36992600  0.96108700  0.14372000  1
  Ni  Ni164  1  0.03891300  0.36992600  0.64372000  1
  Ni  Ni165  1  0.96108700  0.63007400  0.64372000  1
  Ni  Ni166  1  0.36992600  0.96108700  0.85628000  1
  Ni  Ni167  1  0.63007400  0.03891300  0.85628000  1
  Ni  Ni168  1  0.96108700  0.63007400  0.35628000  1
  Ni  Ni169  1  0.03891300  0.36992600  0.35628000  1
  Cu  Cu170  1  0.00000000  0.00000000  0.50000000  1
  Cu  Cu171  1  0.00000000  0.00000000  0.00000000  1
  Cu  Cu172  1  0.56224300  0.80988600  0.50000000  1
  Cu  Cu173  1  0.43775700  0.19011400  0.50000000  1
  Cu  Cu174  1  0.80988600  0.43775700  0.00000000  1
  Cu  Cu175  1  0.19011400  0.56224300  0.00000000  1
  Cu  Cu176  1  0.78494000  0.40358400  0.50000000  1
  Cu  Cu177  1  0.21506000  0.59641600  0.50000000  1
  Cu  Cu178  1  0.40358400  0.21506000  0.00000000  1
  Cu  Cu179  1  0.59641600  0.78494000  0.00000000  1
  Cu  Cu180  1  0.84529600  0.88045000  0.50000000  1
  Cu  Cu181  1  0.15470400  0.11955000  0.50000000  1
  Cu  Cu182  1  0.88045000  0.15470400  0.00000000  1
  Cu  Cu183  1  0.11955000  0.84529600  0.00000000  1
  Cu  Cu184  1  0.56379400  0.81039600  0.28777400  1
  Cu  Cu185  1  0.43620600  0.18960400  0.28777400  1
  Cu  Cu186  1  0.81039600  0.43620600  0.78777400  1
  Cu  Cu187  1  0.18960400  0.56379400  0.78777400  1
  Cu  Cu188  1  0.43620600  0.18960400  0.71222600  1
  Cu  Cu189  1  0.56379400  0.81039600  0.71222600  1
  Cu  Cu190  1  0.18960400  0.56379400  0.21222600  1
  Cu  Cu191  1  0.81039600  0.43620600  0.21222600  1
  Cu  Cu192  1  0.71465100  0.58432100  0.50000000  1
  Cu  Cu193  1  0.28534900  0.41567900  0.50000000  1
  Cu  Cu194  1  0.58432100  0.28534900  0.00000000  1
  Cu  Cu195  1  0.41567900  0.71465100  0.00000000  1
  Cu  Cu196  1  0.85217000  0.21813000  0.50000000  1
  Cu  Cu197  1  0.14783000  0.78187000  0.50000000  1
  Cu  Cu198  1  0.21813000  0.14783000  0.00000000  1
  Cu  Cu199  1  0.78187000  0.85217000  0.00000000  1
