# generated using pymatgen
data_Cu3Ni3C22
_symmetry_space_group_name_H-M   'P 1'
_cell_length_a   6.01891810
_cell_length_b   10.36298234
_cell_length_c   10.54535638
_cell_angle_alpha   89.79099985
_cell_angle_beta   89.60494716
_cell_angle_gamma   89.75839587
_symmetry_Int_Tables_number   1
_chemical_formula_structural   Cu3Ni3C22
_chemical_formula_sum   'Cu6 Ni6 C44'
_cell_volume   657.72965776
_cell_formula_units_Z   2
loop_
 _symmetry_equiv_pos_site_id
 _symmetry_equiv_pos_as_xyz
  1  'x, y, z'
loop_
 _atom_site_type_symbol
 _atom_site_label
 _atom_site_symmetry_multiplicity
 _atom_site_fract_x
 _atom_site_fract_y
 _atom_site_fract_z
 _atom_site_occupancy
  C  C0  1  0.99911000  0.33379900  0.89200500  1
  C  C1  1  0.49913000  0.83384200  0.89204000  1
  C  C2  1  0.50154300  0.49950600  0.99323200  1
  C  C3  1  0.00158400  0.99950500  0.99321400  1
  C  C4  1  0.00791800  0.99996400  0.49483300  1
  C  C5  1  0.50790200  0.49991400  0.49482200  1
  C  C6  1  0.49784800  0.16761000  0.38975000  1
  C  C7  1  0.99785800  0.66757400  0.38969400  1
  Ni  Ni8  1  0.76257800  0.41666200  0.22341100  1
  Ni  Ni9  1  0.26261100  0.91667100  0.22344700  1
  Ni  Ni10  1  0.00421300  0.17310900  0.22297600  1
  Ni  Ni11  1  0.50423100  0.67308800  0.22298900  1
  Ni  Ni12  1  0.26236400  0.08591200  0.72745600  1
  Ni  Ni13  1  0.76246500  0.58586700  0.72741800  1
  Cu  Cu14  1  0.74466900  0.91512700  0.21325500  1
  Cu  Cu15  1  0.00827500  0.82638800  0.71983400  1
  Cu  Cu16  1  0.24513200  0.58402900  0.71356800  1
  Cu  Cu17  1  0.24467900  0.41511600  0.21322700  1
  Cu  Cu18  1  0.50819400  0.32637100  0.71977700  1
  Cu  Cu19  1  0.74493200  0.08406600  0.71355000  1
  C  C20  1  0.00351700  0.33308000  0.51628200  1
  C  C21  1  0.50354700  0.83317600  0.51626200  1
  C  C22  1  0.50114300  0.16784200  0.01490300  1
  C  C23  1  0.00114400  0.66787600  0.01494500  1
  C  C24  1  0.73407400  0.42117800  0.60644900  1
  C  C25  1  0.23406500  0.92115200  0.60643500  1
  C  C26  1  0.76791900  0.25596400  0.31809600  1
  C  C27  1  0.26793100  0.75597700  0.31813600  1
  C  C28  1  0.98470300  0.32869500  0.11159100  1
  C  C29  1  0.48469500  0.82870100  0.11161300  1
  C  C30  1  0.00748500  0.00229600  0.31115600  1
  C  C31  1  0.50746600  0.50229400  0.31116900  1
  C  C32  1  0.50699500  0.49885700  0.81095200  1
  C  C33  1  0.00705800  0.99883500  0.81092100  1
  C  C34  1  0.99818200  0.15693800  0.60719500  1
  C  C35  1  0.49817700  0.65692400  0.60717300  1
  C  C36  1  0.98965300  0.49240000  0.31394700  1
  C  C37  1  0.48964700  0.99240000  0.31397900  1
  C  C38  1  0.23087500  0.24917400  0.31475100  1
  C  C39  1  0.73090700  0.74916100  0.31473400  1
  C  C40  1  0.23197400  0.07759600  0.10507900  1
  C  C41  1  0.73195300  0.57761400  0.10507200  1
  C  C42  1  0.27472900  0.41829200  0.61074200  1
  C  C43  1  0.77461300  0.91836300  0.61081400  1
  C  C44  1  0.26396800  0.24305500  0.81918400  1
  C  C45  1  0.76391000  0.74304300  0.81916300  1
  C  C46  1  0.49276000  0.00868600  0.81722300  1
  C  C47  1  0.99278300  0.50858600  0.81711100  1
  C  C48  1  0.48491800  0.16772400  0.61132500  1
  C  C49  1  0.98519600  0.66764900  0.61143200  1
  C  C50  1  0.50011500  0.34369500  0.10753300  1
  C  C51  1  0.00013600  0.84368800  0.10753800  1
  C  C52  1  0.72665900  0.25390600  0.81416900  1
  C  C53  1  0.22663600  0.75394000  0.81432500  1
  C  C54  1  0.76648400  0.07869000  0.10690500  1
  C  C55  1  0.26645400  0.57873400  0.10688100  1
