# generated using pymatgen
data_Cu2NiC11
_symmetry_space_group_name_H-M   'P 1'
_cell_length_a   5.38843400
_cell_length_b   12.98045300
_cell_length_c   19.39539461
_cell_angle_alpha   70.87655901
_cell_angle_beta   90.00000000
_cell_angle_gamma   90.00000000
_symmetry_Int_Tables_number   1
_chemical_formula_structural   Cu2NiC11
_chemical_formula_sum   'Cu16 Ni8 C88'
_cell_volume   1281.73368591
_cell_formula_units_Z   8
loop_
 _symmetry_equiv_pos_site_id
 _symmetry_equiv_pos_as_xyz
  1  'x, y, z'
loop_
 _atom_site_type_symbol
 _atom_site_label
 _atom_site_symmetry_multiplicity
 _atom_site_fract_x
 _atom_site_fract_y
 _atom_site_fract_z
 _atom_site_occupancy
  C  C0  1  0.84145800  0.68502800  0.94672200  1
  C  C1  1  0.32993800  0.80208800  0.87024300  1
  C  C2  1  0.71081600  0.93955800  0.80256200  1
  C  C3  1  0.65854200  0.18502800  0.94672200  1
  C  C4  1  0.17006200  0.30208800  0.87024300  1
  C  C5  1  0.78918400  0.43955800  0.80256200  1
  C  C6  1  0.18358900  0.74448000  0.69189000  1
  C  C7  1  0.81444800  0.68246300  0.62145900  1
  C  C8  1  0.31641100  0.24448000  0.69189000  1
  C  C9  1  0.33473200  0.62491600  0.56198300  1
  C  C10  1  0.68555200  0.18246300  0.62145900  1
  C  C11  1  0.83473200  0.87508400  0.43801700  1
  C  C12  1  0.16526800  0.12491600  0.56198300  1
  C  C13  1  0.31444800  0.81753700  0.37854100  1
  C  C14  1  0.66526800  0.37508400  0.43801700  1
  C  C15  1  0.68358900  0.75552000  0.30811000  1
  C  C16  1  0.18555200  0.31753700  0.37854100  1
  C  C17  1  0.81641100  0.25552000  0.30811000  1
  C  C18  1  0.21081600  0.56044200  0.19743800  1
  C  C19  1  0.82993800  0.69791200  0.12975700  1
  C  C20  1  0.34145800  0.81497200  0.05327800  1
  C  C21  1  0.28918400  0.06044200  0.19743800  1
  C  C22  1  0.67006200  0.19791200  0.12975700  1
  C  C23  1  0.15854200  0.31497200  0.05327800  1
  Ni  Ni24  1  0.32276200  0.53957200  0.88298500  1
  Ni  Ni25  1  0.17723800  0.03957200  0.88298500  1
  Ni  Ni26  1  0.68074100  0.92006000  0.61787300  1
  Ni  Ni27  1  0.81925900  0.42006000  0.61787300  1
  Ni  Ni28  1  0.18074100  0.57994000  0.38212700  1
  Ni  Ni29  1  0.31925900  0.07994000  0.38212700  1
  Ni  Ni30  1  0.82276200  0.96042800  0.11701500  1
  Ni  Ni31  1  0.67723800  0.46042800  0.11701500  1
  Cu  Cu32  1  0.72354700  0.90944200  0.96471200  1
  Cu  Cu33  1  0.77645300  0.40944200  0.96471200  1
  Cu  Cu34  1  0.79815000  0.70182000  0.78898600  1
  Cu  Cu35  1  0.70185000  0.20182000  0.78898600  1
  Cu  Cu36  1  0.29494400  0.48538400  0.71220200  1
  Cu  Cu37  1  0.22810000  0.87636400  0.53260500  1
  Cu  Cu38  1  0.20505600  0.98538400  0.71220200  1
  Cu  Cu39  1  0.27190000  0.37636400  0.53260500  1
  Cu  Cu40  1  0.72810000  0.62363600  0.46739500  1
  Cu  Cu41  1  0.79494400  0.01461600  0.28779800  1
  Cu  Cu42  1  0.77190000  0.12363600  0.46739500  1
  Cu  Cu43  1  0.70505600  0.51461600  0.28779800  1
  Cu  Cu44  1  0.29815000  0.79818000  0.21101400  1
  Cu  Cu45  1  0.20185000  0.29818000  0.21101400  1
  Cu  Cu46  1  0.22354700  0.59055800  0.03528800  1
  Cu  Cu47  1  0.27645300  0.09055800  0.03528800  1
  C  C48  1  0.47143500  0.89421900  0.92984700  1
  C  C49  1  0.93516200  0.87823100  0.92032100  1
  C  C50  1  0.21928700  0.66847600  0.95481900  1
  C  C51  1  0.73479500  0.52810900  0.96384800  1
  C  C52  1  0.28859000  0.96242100  0.79350000  1
  C  C53  1  0.66750400  0.76743700  0.83181200  1
  C  C54  1  0.02856500  0.39421900  0.92984700  1
  C  C55  1  0.56483800  0.37823100  0.92032100  1
  C  C56  1  0.28071300  0.16847600  0.95481900  1
  C  C57  1  0.08512400  0.69703000  0.80232100  1
  C  C58  1  0.76520500  0.02810900  0.96384800  1
  C  C59  1  0.68778000  0.58452900  0.81199800  1
  C  C60  1  0.91672000  0.98018600  0.70736200  1
  C  C61  1  0.32027500  0.89118400  0.68898800  1
  C  C62  1  0.21141000  0.46242100  0.79350000  1
  C  C63  1  0.83249600  0.26743700  0.83181200  1
  C  C64  1  0.76813800  0.75054000  0.70359500  1
  C  C65  1  0.41487600  0.19703000  0.80232100  1
  C  C66  1  0.81222000  0.08452900  0.81199800  1
  C  C67  1  0.58328000  0.48018600  0.70736200  1
  C  C68  1  0.19169800  0.59662100  0.66267100  1
  C  C69  1  0.17972500  0.39118400  0.68898800  1
  C  C70  1  0.99005800  0.82153400  0.57437000  1
  C  C71  1  0.45193800  0.80331500  0.57031500  1
  C  C72  1  0.73186200  0.25054000  0.70359500  1
  C  C73  1  0.26615600  0.99296800  0.53518200  1
  C  C74  1  0.70274200  0.61879700  0.54843400  1
  C  C75  1  0.30830200  0.09662100  0.66267100  1
  C  C76  1  0.20274200  0.88120300  0.45156600  1
  C  C77  1  0.50994200  0.32153400  0.57437000  1
  C  C78  1  0.04806200  0.30331500  0.57031500  1
  C  C79  1  0.23384400  0.49296800  0.53518200  1
  C  C80  1  0.76615600  0.50703200  0.46481800  1
  C  C81  1  0.95193800  0.69668500  0.42968500  1
  C  C82  1  0.49005800  0.67846600  0.42563000  1
  C  C83  1  0.79725800  0.11879700  0.54843400  1
  C  C84  1  0.69169800  0.90337900  0.33732900  1
  C  C85  1  0.29725800  0.38120300  0.45156600  1
  C  C86  1  0.73384400  0.00703200  0.46481800  1
  C  C87  1  0.26813800  0.74946000  0.29640500  1
  C  C88  1  0.54806200  0.19668500  0.42968500  1
  C  C89  1  0.00994200  0.17846600  0.42563000  1
  C  C90  1  0.82027500  0.60881600  0.31101200  1
  C  C91  1  0.80830200  0.40337900  0.33732900  1
  C  C92  1  0.41672000  0.51981400  0.29263800  1
  C  C93  1  0.18778000  0.91547100  0.18800200  1
  C  C94  1  0.58512400  0.80297000  0.19767900  1
  C  C95  1  0.23186200  0.24946000  0.29640500  1
  C  C96  1  0.16750400  0.73256300  0.16818800  1
  C  C97  1  0.78859000  0.53757900  0.20650000  1
  C  C98  1  0.67972500  0.10881600  0.31101200  1
  C  C99  1  0.08328000  0.01981400  0.29263800  1
  C  C100  1  0.31222000  0.41547100  0.18800200  1
  C  C101  1  0.23479500  0.97189100  0.03615200  1
  C  C102  1  0.91487600  0.30297000  0.19767900  1
  C  C103  1  0.71928700  0.83152400  0.04518100  1
  C  C104  1  0.43516200  0.62176900  0.07967900  1
  C  C105  1  0.97143500  0.60578100  0.07015300  1
  C  C106  1  0.33249600  0.23256300  0.16818800  1
  C  C107  1  0.71141000  0.03757900  0.20650000  1
  C  C108  1  0.26520500  0.47189100  0.03615200  1
  C  C109  1  0.78071300  0.33152400  0.04518100  1
  C  C110  1  0.06483800  0.12176900  0.07967900  1
  C  C111  1  0.52856500  0.10578100  0.07015300  1
