# generated using pymatgen
data_Cu7NiC4
_symmetry_space_group_name_H-M   'P 1'
_cell_length_a   8.46801415
_cell_length_b   10.03582135
_cell_length_c   6.44506921
_cell_angle_alpha   90.00000000
_cell_angle_beta   90.00000000
_cell_angle_gamma   86.42513324
_symmetry_Int_Tables_number   1
_chemical_formula_structural   Cu7NiC4
_chemical_formula_sum   'Cu28 Ni4 C16'
_cell_volume   546.65861677
_cell_formula_units_Z   4
loop_
 _symmetry_equiv_pos_site_id
 _symmetry_equiv_pos_as_xyz
  1  'x, y, z'
loop_
 _atom_site_type_symbol
 _atom_site_label
 _atom_site_symmetry_multiplicity
 _atom_site_fract_x
 _atom_site_fract_y
 _atom_site_fract_z
 _atom_site_occupancy
  C  C0  1  0.26575845  0.12881192  0.03668215  1
  C  C1  1  0.26191728  0.12667475  0.46389039  1
  C  C2  1  0.26191728  0.62667475  0.03610961  1
  C  C3  1  0.26575845  0.62881192  0.46331785  1
  C  C4  1  0.73043833  0.37171870  0.96342746  1
  C  C5  1  0.73043833  0.87171870  0.53657254  1
  C  C6  1  0.89137499  0.11083660  0.75600644  1
  C  C7  1  0.89137499  0.61083660  0.74399356  1
  C  C8  1  0.33570002  0.40370905  0.74568834  1
  C  C9  1  0.33570002  0.90370905  0.75431166  1
  C  C10  1  0.67715676  0.09468929  0.24885891  1
  C  C11  1  0.67715676  0.59468929  0.25114109  1
  C  C12  1  0.41670857  0.36688509  0.24298521  1
  C  C13  1  0.41670857  0.86688509  0.25701479  1
  C  C14  1  0.58340192  0.14131890  0.75323272  1
  C  C15  1  0.58340192  0.64131890  0.74676728  1
  Ni  Ni16  1  0.04472553  0.35494379  0.75803399  1
  Ni  Ni17  1  0.04472553  0.85494379  0.74196601  1
  Ni  Ni18  1  0.95952122  0.13702743  0.25108021  1
  Ni  Ni19  1  0.95952122  0.63702743  0.24891979  1
  Cu  Cu20  1  0.06990982  0.48007239  0.74925000  1
  Cu  Cu21  1  0.10069999  0.17237060  0.24690064  1
  Cu  Cu22  1  0.06990982  0.98007239  0.75075000  1
  Cu  Cu23  1  0.17485725  0.27098797  0.74267830  1
  Cu  Cu24  1  0.10069999  0.67237060  0.25309936  1
  Cu  Cu25  1  0.17485725  0.77098797  0.75732170  1
  Cu  Cu26  1  0.31413571  0.41845741  0.05520358  1
  Cu  Cu27  1  0.32784398  0.42435778  0.43740983  1
  Cu  Cu28  1  0.32784398  0.92435778  0.06259017  1
  Cu  Cu29  1  0.31413571  0.91845741  0.44479642  1
  Cu  Cu30  1  0.41636875  0.08245523  0.74849104  1
  Cu  Cu31  1  0.43488313  0.21179799  0.24855341  1
  Cu  Cu32  1  0.41636875  0.58245523  0.75150896  1
  Cu  Cu33  1  0.43488313  0.71179799  0.25144659  1
  Cu  Cu34  1  0.55332882  0.29379980  0.76072098  1
  Cu  Cu35  1  0.58382983  0.42085371  0.22503719  1
  Cu  Cu36  1  0.55332882  0.79379980  0.73927902  1
  Cu  Cu37  1  0.58382983  0.92085371  0.27496281  1
  Cu  Cu38  1  0.68562399  0.09283565  0.93880760  1
  Cu  Cu39  1  0.68720043  0.09060074  0.56802460  1
  Cu  Cu40  1  0.68562399  0.59283565  0.56119240  1
  Cu  Cu41  1  0.68720043  0.59060074  0.93197540  1
  Cu  Cu42  1  0.83760906  0.22731604  0.23377537  1
  Cu  Cu43  1  0.91211333  0.30610721  0.78150713  1
  Cu  Cu44  1  0.83760906  0.72731604  0.26622463  1
  Cu  Cu45  1  0.91867082  0.01653797  0.27193856  1
  Cu  Cu46  1  0.91211333  0.80610721  0.71849287  1
  Cu  Cu47  1  0.91867082  0.51653797  0.22806144  1
