# generated using pymatgen
data_Cu16Ni4C9
_symmetry_space_group_name_H-M   'P 1'
_cell_length_a   9.52052247
_cell_length_b   9.52052247
_cell_length_c   9.52052247
_cell_angle_alpha   60.00000000
_cell_angle_beta   60.00000000
_cell_angle_gamma   60.00000000
_symmetry_Int_Tables_number   1
_chemical_formula_structural   Cu16Ni4C9
_chemical_formula_sum   'Cu32 Ni8 C18'
_cell_volume   610.19318026
_cell_formula_units_Z   2
loop_
 _symmetry_equiv_pos_site_id
 _symmetry_equiv_pos_as_xyz
  1  'x, y, z'
loop_
 _atom_site_type_symbol
 _atom_site_label
 _atom_site_symmetry_multiplicity
 _atom_site_fract_x
 _atom_site_fract_y
 _atom_site_fract_z
 _atom_site_occupancy
  C  C0  1  0.71681100  0.71681100  0.28318900  1
  C  C1  1  0.96681100  0.96681100  0.53318900  1
  C  C2  1  0.28318900  0.71681100  0.71681100  1
  C  C3  1  0.71681100  0.28318900  0.28318900  1
  C  C4  1  0.96681100  0.53318900  0.96681100  1
  C  C5  1  0.53318900  0.96681100  0.53318900  1
  C  C6  1  0.28318900  0.71681100  0.28318900  1
  C  C7  1  0.71681100  0.28318900  0.71681100  1
  C  C8  1  0.53318900  0.96681100  0.96681100  1
  C  C9  1  0.53318900  0.53318900  0.96681100  1
  C  C10  1  0.96681100  0.53318900  0.53318900  1
  C  C11  1  0.28318900  0.28318900  0.71681100  1
  C  C12  1  0.62500000  0.12500000  0.12500000  1
  C  C13  1  0.12500000  0.12500000  0.12500000  1
  C  C14  1  0.12500000  0.62500000  0.12500000  1
  C  C15  1  0.12500000  0.12500000  0.62500000  1
  Ni  Ni16  1  0.35130600  0.94608200  0.35130600  1
  Ni  Ni17  1  0.89869400  0.89869400  0.89869400  1
  Ni  Ni18  1  0.30391800  0.89869400  0.89869400  1
  Ni  Ni19  1  0.35130600  0.35130600  0.94608200  1
  Ni  Ni20  1  0.89869400  0.89869400  0.30391800  1
  Ni  Ni21  1  0.94608200  0.35130600  0.35130600  1
  Ni  Ni22  1  0.35130600  0.35130600  0.35130600  1
  Ni  Ni23  1  0.89869400  0.30391800  0.89869400  1
  C  C24  1  0.75000000  0.75000000  0.75000000  1
  C  C25  1  0.50000000  0.50000000  0.50000000  1
  Cu  Cu26  1  0.68582700  0.68582700  0.68582700  1
  Cu  Cu27  1  0.94251800  0.68582700  0.68582700  1
  Cu  Cu28  1  0.68582700  0.68582700  0.94251800  1
  Cu  Cu29  1  0.68582700  0.94251800  0.68582700  1
  Cu  Cu30  1  0.90519700  0.03191300  0.30403000  1
  Cu  Cu31  1  0.75886000  0.30403000  0.03191300  1
  Cu  Cu32  1  0.90519700  0.75886000  0.03191300  1
  Cu  Cu33  1  0.21808700  0.94597000  0.34480300  1
  Cu  Cu34  1  0.03191300  0.90519700  0.75886000  1
  Cu  Cu35  1  0.30403000  0.75886000  0.90519700  1
  Cu  Cu36  1  0.75886000  0.03191300  0.90519700  1
  Cu  Cu37  1  0.34480300  0.94597000  0.49114000  1
  Cu  Cu38  1  0.94597000  0.34480300  0.21808700  1
  Cu  Cu39  1  0.03191300  0.75886000  0.30403000  1
  Cu  Cu40  1  0.94597000  0.21808700  0.49114000  1
  Cu  Cu41  1  0.75886000  0.90519700  0.30403000  1
  Cu  Cu42  1  0.30403000  0.03191300  0.75886000  1
  Cu  Cu43  1  0.49114000  0.34480300  0.94597000  1
  Cu  Cu44  1  0.21808700  0.49114000  0.94597000  1
  Cu  Cu45  1  0.30403000  0.90519700  0.03191300  1
  Cu  Cu46  1  0.90519700  0.30403000  0.75886000  1
  Cu  Cu47  1  0.49114000  0.21808700  0.34480300  1
  Cu  Cu48  1  0.94597000  0.49114000  0.34480300  1
  Cu  Cu49  1  0.21808700  0.34480300  0.49114000  1
  Cu  Cu50  1  0.34480300  0.49114000  0.21808700  1
  Cu  Cu51  1  0.03191300  0.30403000  0.90519700  1
  Cu  Cu52  1  0.49114000  0.94597000  0.21808700  1
  Cu  Cu53  1  0.34480300  0.21808700  0.94597000  1
  Cu  Cu54  1  0.56417300  0.30748200  0.56417300  1
  Cu  Cu55  1  0.56417300  0.56417300  0.30748200  1
  Cu  Cu56  1  0.30748200  0.56417300  0.56417300  1
  Cu  Cu57  1  0.56417300  0.56417300  0.56417300  1
