# generated using pymatgen
data_Cu2NiC15
_symmetry_space_group_name_H-M   'P 1'
_cell_length_a   3.15151300
_cell_length_b   8.25501900
_cell_length_c   14.31610330
_cell_angle_alpha   89.91092320
_cell_angle_beta   90.00000000
_cell_angle_gamma   90.00000000
_symmetry_Int_Tables_number   1
_chemical_formula_structural   Cu2NiC15
_chemical_formula_sum   'Cu4 Ni2 C30'
_cell_volume   372.44442577
_cell_formula_units_Z   2
loop_
 _symmetry_equiv_pos_site_id
 _symmetry_equiv_pos_as_xyz
  1  'x, y, z'
loop_
 _atom_site_type_symbol
 _atom_site_label
 _atom_site_symmetry_multiplicity
 _atom_site_fract_x
 _atom_site_fract_y
 _atom_site_fract_z
 _atom_site_occupancy
  C  C0  1  0.50000000  0.70640400  0.99055500  1
  C  C1  1  0.50000000  0.65971500  0.35837200  1
  C  C2  1  0.50000000  0.63409500  0.65053800  1
  C  C3  1  0.50000000  0.20702200  0.49205800  1
  C  C4  1  0.50000000  0.15813500  0.85640600  1
  C  C5  1  0.50000000  0.13319300  0.15123000  1
  Ni  Ni6  1  0.00000000  0.80842500  0.18000900  1
  Ni  Ni7  1  0.00000000  0.36536000  0.00539100  1
  Cu  Cu8  1  0.00000000  0.86430700  0.50453900  1
  Cu  Cu9  1  0.00000000  0.82496700  0.81671700  1
  Cu  Cu10  1  0.00000000  0.32443600  0.31704200  1
  Cu  Cu11  1  0.00000000  0.31139900  0.67984400  1
  C  C12  1  0.50000000  0.99986900  0.66630800  1
  C  C13  1  0.00000000  0.00019500  0.99890800  1
  C  C14  1  0.50000000  0.00111900  0.33451200  1
  C  C15  1  0.50000000  0.49811300  0.16772900  1
  C  C16  1  0.00000000  0.50022900  0.50025900  1
  C  C17  1  0.50000000  0.50099200  0.83197000  1
  C  C18  1  0.50000000  0.98919500  0.43138100  1
  C  C19  1  0.50000000  0.98136800  0.76325100  1
  C  C20  1  0.50000000  0.86367000  0.60869100  1
  C  C21  1  0.50000000  0.86148900  0.28040400  1
  C  C22  1  0.00000000  0.84646300  0.95864200  1
  C  C23  1  0.50000000  0.65112400  0.12587600  1
  C  C24  1  0.50000000  0.65277400  0.78946100  1
  C  C25  1  0.00000000  0.64002900  0.44561000  1
  C  C26  1  0.00000000  0.51206700  0.59722500  1
  C  C27  1  0.50000000  0.48956100  0.92882800  1
  C  C28  1  0.50000000  0.48299100  0.26456800  1
  C  C29  1  0.50000000  0.36075600  0.11158200  1
  C  C30  1  0.50000000  0.36090200  0.77792200  1
  C  C31  1  0.00000000  0.34851000  0.45787300  1
  C  C32  1  0.50000000  0.15479500  0.62709700  1
  C  C33  1  0.50000000  0.15275100  0.29148300  1
  C  C34  1  0.00000000  0.13674500  0.94185500  1
  C  C35  1  0.00000000  0.01683200  0.09586300  1
