# generated using pymatgen
data_Cu6NiC16
_symmetry_space_group_name_H-M   'P 1'
_cell_length_a   7.88758700
_cell_length_b   12.01368600
_cell_length_c   14.65735298
_cell_angle_alpha   56.86832535
_cell_angle_beta   90.00000000
_cell_angle_gamma   90.00000000
_symmetry_Int_Tables_number   1
_chemical_formula_structural   Cu6NiC16
_chemical_formula_sum   'Cu24 Ni4 C64'
_cell_volume   1163.10145122
_cell_formula_units_Z   4
loop_
 _symmetry_equiv_pos_site_id
 _symmetry_equiv_pos_as_xyz
  1  'x, y, z'
loop_
 _atom_site_type_symbol
 _atom_site_label
 _atom_site_symmetry_multiplicity
 _atom_site_fract_x
 _atom_site_fract_y
 _atom_site_fract_z
 _atom_site_occupancy
  Ni  Ni0  1  0.52216100  0.28498800  0.22173100  1
  Ni  Ni1  1  0.97783900  0.28498800  0.72173100  1
  Ni  Ni2  1  0.47783900  0.71501200  0.77826900  1
  Ni  Ni3  1  0.02216100  0.71501200  0.27826900  1
  Cu  Cu4  1  0.72014300  0.16781300  0.28832100  1
  Cu  Cu5  1  0.77985700  0.16781300  0.78832100  1
  Cu  Cu6  1  0.27985700  0.83218700  0.71167900  1
  Cu  Cu7  1  0.22014300  0.83218700  0.21167900  1
  Cu  Cu8  1  0.72638500  0.10132600  0.20315500  1
  Cu  Cu9  1  0.77361500  0.10132600  0.70315500  1
  Cu  Cu10  1  0.27361500  0.89867400  0.79684500  1
  Cu  Cu11  1  0.22638500  0.89867400  0.29684500  1
  Cu  Cu12  1  0.72645000  0.27960500  0.14587500  1
  Cu  Cu13  1  0.77355000  0.27960500  0.64587500  1
  Cu  Cu14  1  0.27355000  0.72039500  0.85412500  1
  Cu  Cu15  1  0.22645000  0.72039500  0.35412500  1
  Cu  Cu16  1  0.29127200  0.30954900  0.22699700  1
  Cu  Cu17  1  0.20872800  0.30954900  0.72699700  1
  Cu  Cu18  1  0.70872800  0.69045100  0.77300300  1
  Cu  Cu19  1  0.79127200  0.69045100  0.27300300  1
  Cu  Cu20  1  0.27237100  0.27544400  0.36885800  1
  Cu  Cu21  1  0.22762900  0.27544400  0.86885800  1
  Cu  Cu22  1  0.72762900  0.72455600  0.63114200  1
  Cu  Cu23  1  0.77237100  0.72455600  0.13114200  1
  Cu  Cu24  1  0.41653500  0.36746000  0.29446000  1
  Cu  Cu25  1  0.08346500  0.36746000  0.79446000  1
  Cu  Cu26  1  0.58346500  0.63254000  0.70554000  1
  Cu  Cu27  1  0.91653500  0.63254000  0.20554000  1
  C  C28  1  0.83914300  0.17252900  0.33660500  1
  C  C29  1  0.66085700  0.17252900  0.83660500  1
  C  C30  1  0.16085700  0.82747100  0.66339500  1
  C  C31  1  0.33914300  0.82747100  0.16339500  1
  C  C32  1  0.93684000  0.04637500  0.05244600  1
  C  C33  1  0.56316000  0.04637500  0.55244600  1
  C  C34  1  0.06316000  0.95362500  0.94755400  1
  C  C35  1  0.43684000  0.95362500  0.44755400  1
  C  C36  1  0.84755000  0.35093900  0.11355400  1
  C  C37  1  0.65245000  0.35093900  0.61355400  1
  C  C38  1  0.15245000  0.64906100  0.88644600  1
  C  C39  1  0.34755000  0.64906100  0.38644600  1
  C  C40  1  0.60333200  0.05143700  0.19137000  1
  C  C41  1  0.89666800  0.05143700  0.69137000  1
  C  C42  1  0.39666800  0.94856300  0.80863000  1
  C  C43  1  0.10333200  0.94856300  0.30863000  1
  C  C44  1  0.70328800  0.04828400  0.31573000  1
  C  C45  1  0.79671200  0.04828400  0.81573000  1
  C  C46  1  0.29671200  0.95171600  0.68427000  1
  C  C47  1  0.20328800  0.95171600  0.18427000  1
  C  C48  1  0.72602000  0.21997700  0.09626700  1
  C  C49  1  0.77398000  0.21997700  0.59626700  1
  C  C50  1  0.27398000  0.78002300  0.90373300  1
  C  C51  1  0.22602000  0.78002300  0.40373300  1
  C  C52  1  0.59152800  0.34480100  0.10447700  1
  C  C53  1  0.90847200  0.34480100  0.60447700  1
  C  C54  1  0.40847200  0.65519900  0.89552300  1
  C  C55  1  0.09152800  0.65519900  0.39552300  1
  C  C56  1  0.58555300  0.16844700  0.33287000  1
  C  C57  1  0.91444700  0.16844700  0.83287000  1
  C  C58  1  0.41444700  0.83155300  0.66713000  1
  C  C59  1  0.08555300  0.83155300  0.16713000  1
  C  C60  1  0.19997000  0.37796500  0.15026000  1
  C  C61  1  0.30003000  0.37796500  0.65026000  1
  C  C62  1  0.80003000  0.62203500  0.84974000  1
  C  C63  1  0.69997000  0.62203500  0.34974000  1
  C  C64  1  0.81119400  0.77485100  0.55067700  1
  C  C65  1  0.68880600  0.77485100  0.05067700  1
  C  C66  1  0.18880600  0.22514900  0.44932300  1
  C  C67  1  0.31119400  0.22514900  0.94932300  1
  C  C68  1  0.36249000  0.94336200  0.29570400  1
  C  C69  1  0.13751000  0.94336200  0.79570400  1
  C  C70  1  0.63751000  0.05663800  0.70429600  1
  C  C71  1  0.86249000  0.05663800  0.20429600  1
  C  C72  1  0.38336700  0.90023600  0.49203500  1
  C  C73  1  0.11663300  0.90023600  0.99203500  1
  C  C74  1  0.61663300  0.09976400  0.50796500  1
  C  C75  1  0.88336700  0.09976400  0.00796500  1
  C  C76  1  0.17898200  0.24427900  0.30704500  1
  C  C77  1  0.32101800  0.24427900  0.80704500  1
  C  C78  1  0.82101800  0.75572100  0.69295500  1
  C  C79  1  0.67898200  0.75572100  0.19295500  1
  C  C80  1  0.27154100  0.41331000  0.31047500  1
  C  C81  1  0.22845900  0.41331000  0.81047500  1
  C  C82  1  0.72845900  0.58669000  0.68952500  1
  C  C83  1  0.77154100  0.58669000  0.18952500  1
  C  C84  1  0.53581900  0.43244000  0.28755600  1
  C  C85  1  0.96418100  0.43244000  0.78755600  1
  C  C86  1  0.46418100  0.56756000  0.71244400  1
  C  C87  1  0.03581900  0.56756000  0.21244400  1
  C  C88  1  0.35678400  0.21726400  0.22066600  1
  C  C89  1  0.14321600  0.21726400  0.72066600  1
  C  C90  1  0.64321600  0.78273600  0.77933400  1
  C  C91  1  0.85678400  0.78273600  0.27933400  1
