# generated using pymatgen
data_CuNi5C9
_symmetry_space_group_name_H-M   'P 1'
_cell_length_a   5.62291455
_cell_length_b   5.62291455
_cell_length_c   10.97796000
_cell_angle_alpha   90.00000000
_cell_angle_beta   90.00000000
_cell_angle_gamma   120.00000645
_symmetry_Int_Tables_number   1
_chemical_formula_structural   CuNi5C9
_chemical_formula_sum   'Cu2 Ni10 C18'
_cell_volume   300.59047491
_cell_formula_units_Z   2
loop_
 _symmetry_equiv_pos_site_id
 _symmetry_equiv_pos_as_xyz
  1  'x, y, z'
loop_
 _atom_site_type_symbol
 _atom_site_label
 _atom_site_symmetry_multiplicity
 _atom_site_fract_x
 _atom_site_fract_y
 _atom_site_fract_z
 _atom_site_occupancy
  C  C0  1  0.97153400  0.68773900  0.77626500  1
  C  C1  1  0.01706100  0.62342200  0.12275200  1
  C  C2  1  0.98293900  0.37657800  0.62275200  1
  C  C3  1  0.02846600  0.31226100  0.27626500  1
  C  C4  1  0.33333300  0.66666700  0.41753100  1
  C  C5  1  0.33333300  0.66666700  0.92772000  1
  C  C6  1  0.31226100  0.28379400  0.77626500  1
  C  C7  1  0.37657800  0.39363900  0.12275200  1
  C  C8  1  0.62342200  0.60636100  0.62275200  1
  C  C9  1  0.28379400  0.97153400  0.27626500  1
  C  C10  1  0.68773900  0.71620600  0.27626500  1
  C  C11  1  0.39363900  0.01706100  0.62275200  1
  C  C12  1  0.66666700  0.33333300  0.91753100  1
  C  C13  1  0.66666700  0.33333300  0.42772000  1
  C  C14  1  0.60636100  0.98293900  0.12275200  1
  C  C15  1  0.71620600  0.02846600  0.77626500  1
  C  C16  1  0.00000000  0.00000000  0.49506700  1
  C  C17  1  0.00000000  0.00000000  0.99506700  1
  Ni  Ni18  1  0.00174000  0.67731400  0.95008900  1
  Ni  Ni19  1  0.99826000  0.32268600  0.45008900  1
  Ni  Ni20  1  0.33333300  0.66666700  0.21485400  1
  Ni  Ni21  1  0.00000000  0.00000000  0.17547000  1
  Ni  Ni22  1  0.00000000  0.00000000  0.67547000  1
  Ni  Ni23  1  0.32268600  0.32442600  0.95008900  1
  Ni  Ni24  1  0.32442600  0.00174000  0.45008900  1
  Ni  Ni25  1  0.67731400  0.67557400  0.45008900  1
  Ni  Ni26  1  0.66666700  0.33333300  0.71485400  1
  Ni  Ni27  1  0.67557400  0.99826000  0.95008900  1
  Cu  Cu28  1  0.33333300  0.66666700  0.70774400  1
  Cu  Cu29  1  0.66666700  0.33333300  0.20774400  1
