# generated using pymatgen
data_Cu2Ni3C10
_symmetry_space_group_name_H-M   'P 1'
_cell_length_a   7.25468900
_cell_length_b   8.94730200
_cell_length_c   9.70908500
_cell_angle_alpha   90.00000000
_cell_angle_beta   90.00000000
_cell_angle_gamma   90.00000000
_symmetry_Int_Tables_number   1
_chemical_formula_structural   Cu2Ni3C10
_chemical_formula_sum   'Cu8 Ni12 C40'
_cell_volume   630.21567235
_cell_formula_units_Z   4
loop_
 _symmetry_equiv_pos_site_id
 _symmetry_equiv_pos_as_xyz
  1  'x, y, z'
loop_
 _atom_site_type_symbol
 _atom_site_label
 _atom_site_symmetry_multiplicity
 _atom_site_fract_x
 _atom_site_fract_y
 _atom_site_fract_z
 _atom_site_occupancy
  C  C0  1  0.50231400  0.77136100  0.19724900  1
  C  C1  1  0.99768600  0.27136100  0.30275100  1
  C  C2  1  0.00231400  0.22863900  0.80275100  1
  C  C3  1  0.49768600  0.72863900  0.69724900  1
  C  C4  1  0.49768600  0.22863900  0.80275100  1
  C  C5  1  0.00231400  0.72863900  0.69724900  1
  C  C6  1  0.99768600  0.77136100  0.19724900  1
  C  C7  1  0.50231400  0.27136100  0.30275100  1
  C  C8  1  0.75000000  0.03605300  0.17004700  1
  C  C9  1  0.75000000  0.53605300  0.32995300  1
  C  C10  1  0.25000000  0.96394700  0.82995300  1
  C  C11  1  0.25000000  0.46394700  0.67004700  1
  Ni  Ni12  1  0.25000000  0.01451400  0.28647800  1
  Ni  Ni13  1  0.25000000  0.51451400  0.21352200  1
  Ni  Ni14  1  0.75000000  0.98548600  0.71352200  1
  Ni  Ni15  1  0.75000000  0.48548600  0.78647800  1
  Ni  Ni16  1  0.25000000  0.09559600  0.54176700  1
  Ni  Ni17  1  0.25000000  0.59559600  0.95823300  1
  Ni  Ni18  1  0.75000000  0.90440400  0.45823300  1
  Ni  Ni19  1  0.75000000  0.40440400  0.04176700  1
  Ni  Ni20  1  0.25000000  0.82382000  0.48106000  1
  Ni  Ni21  1  0.25000000  0.32382000  0.01894000  1
  Ni  Ni22  1  0.75000000  0.17618000  0.51894000  1
  Ni  Ni23  1  0.75000000  0.67618000  0.98106000  1
  Cu  Cu24  1  0.37560100  0.08456700  0.11074100  1
  Cu  Cu25  1  0.12439900  0.58456700  0.38925900  1
  Cu  Cu26  1  0.87560100  0.91543300  0.88925900  1
  Cu  Cu27  1  0.62439900  0.41543300  0.61074100  1
  Cu  Cu28  1  0.62439900  0.91543300  0.88925900  1
  Cu  Cu29  1  0.87560100  0.41543300  0.61074100  1
  Cu  Cu30  1  0.12439900  0.08456700  0.11074100  1
  Cu  Cu31  1  0.37560100  0.58456700  0.38925900  1
  C  C32  1  0.41685200  0.03415700  0.19706600  1
  C  C33  1  0.08314800  0.53415700  0.30293400  1
  C  C34  1  0.91685200  0.96584300  0.80293400  1
  C  C35  1  0.58314800  0.46584300  0.69706600  1
  C  C36  1  0.58314800  0.96584300  0.80293400  1
  C  C37  1  0.91685200  0.46584300  0.69706600  1
  C  C38  1  0.08314800  0.03415700  0.19706600  1
  C  C39  1  0.41685200  0.53415700  0.30293400  1
  C  C40  1  0.25000000  0.86180600  0.34259000  1
  C  C41  1  0.25000000  0.36180600  0.15741000  1
  C  C42  1  0.75000000  0.13819400  0.65741000  1
  C  C43  1  0.75000000  0.63819400  0.84259000  1
  C  C44  1  0.25000000  0.12632100  0.39992900  1
  C  C45  1  0.25000000  0.62632100  0.10007100  1
  C  C46  1  0.75000000  0.87367900  0.60007100  1
  C  C47  1  0.75000000  0.37367900  0.89992900  1
  C  C48  1  0.25000000  0.19995600  0.63892600  1
  C  C49  1  0.25000000  0.69995600  0.86107400  1
  C  C50  1  0.75000000  0.80004400  0.36107400  1
  C  C51  1  0.75000000  0.30004400  0.13892600  1
  C  C52  1  0.25000000  0.93971100  0.57990900  1
  C  C53  1  0.25000000  0.43971100  0.92009100  1
  C  C54  1  0.75000000  0.06028900  0.42009100  1
  C  C55  1  0.75000000  0.56028900  0.07990900  1
  C  C56  1  0.25000000  0.67996000  0.52341000  1
  C  C57  1  0.25000000  0.17996000  0.97659000  1
  C  C58  1  0.75000000  0.32004000  0.47659000  1
  C  C59  1  0.75000000  0.82004000  0.02341000  1
