# generated using pymatgen
data_Cu(Ni3C2)2
_symmetry_space_group_name_H-M   'P 1'
_cell_length_a   7.42741900
_cell_length_b   12.97686400
_cell_length_c   15.38270800
_cell_angle_alpha   90.00000000
_cell_angle_beta   90.00000000
_cell_angle_gamma   90.00000000
_symmetry_Int_Tables_number   1
_chemical_formula_structural   Cu(Ni3C2)2
_chemical_formula_sum   'Cu4 Ni24 C16'
_cell_volume   1482.65625339
_cell_formula_units_Z   4
loop_
 _symmetry_equiv_pos_site_id
 _symmetry_equiv_pos_as_xyz
  1  'x, y, z'
loop_
 _atom_site_type_symbol
 _atom_site_label
 _atom_site_symmetry_multiplicity
 _atom_site_fract_x
 _atom_site_fract_y
 _atom_site_fract_z
 _atom_site_occupancy
  C  C0  1  0.25000000  0.11063800  0.46463600  1
  C  C1  1  0.25000000  0.61063800  0.03536400  1
  C  C2  1  0.75000000  0.88936200  0.53536400  1
  C  C3  1  0.75000000  0.38936200  0.96463600  1
  C  C4  1  0.75000000  0.05836700  0.85438400  1
  C  C5  1  0.75000000  0.55836700  0.64561600  1
  C  C6  1  0.25000000  0.94163300  0.14561600  1
  C  C7  1  0.25000000  0.44163300  0.35438400  1
  C  C8  1  0.25000000  0.32803500  0.72629500  1
  C  C9  1  0.25000000  0.82803500  0.77370500  1
  C  C10  1  0.75000000  0.67196500  0.27370500  1
  C  C11  1  0.75000000  0.17196500  0.22629500  1
  C  C12  1  0.25000000  0.27397700  0.09680300  1
  C  C13  1  0.25000000  0.77397700  0.40319700  1
  C  C14  1  0.75000000  0.72602300  0.90319700  1
  C  C15  1  0.75000000  0.22602300  0.59680300  1
  Ni  Ni16  1  0.25000000  0.36217500  0.95188200  1
  Ni  Ni17  1  0.25000000  0.86217500  0.54811800  1
  Ni  Ni18  1  0.75000000  0.63782500  0.04811800  1
  Ni  Ni19  1  0.75000000  0.13782500  0.45188200  1
  Ni  Ni20  1  0.25000000  0.18597800  0.24452200  1
  Ni  Ni21  1  0.25000000  0.68597800  0.25547800  1
  Ni  Ni22  1  0.75000000  0.81402200  0.75547800  1
  Ni  Ni23  1  0.75000000  0.31402200  0.74452200  1
  Ni  Ni24  1  0.01507100  0.39659100  0.15286800  1
  Ni  Ni25  1  0.48492900  0.89659100  0.34713200  1
  Ni  Ni26  1  0.51507100  0.60340900  0.84713200  1
  Ni  Ni27  1  0.98492900  0.10340900  0.65286800  1
  Ni  Ni28  1  0.98492900  0.60340900  0.84713200  1
  Ni  Ni29  1  0.51507100  0.10340900  0.65286800  1
  Ni  Ni30  1  0.48492900  0.39659100  0.15286800  1
  Ni  Ni31  1  0.01507100  0.89659100  0.34713200  1
  Ni  Ni32  1  0.01457800  0.15302400  0.04142300  1
  Ni  Ni33  1  0.48542200  0.65302400  0.45857700  1
  Ni  Ni34  1  0.51457800  0.84697600  0.95857700  1
  Ni  Ni35  1  0.98542200  0.34697600  0.54142300  1
  Ni  Ni36  1  0.98542200  0.84697600  0.95857700  1
  Ni  Ni37  1  0.51457800  0.34697600  0.54142300  1
  Ni  Ni38  1  0.48542200  0.15302400  0.04142300  1
  Ni  Ni39  1  0.01457800  0.65302400  0.45857700  1
  Cu  Cu40  1  0.25000000  0.06161500  0.84459400  1
  Cu  Cu41  1  0.25000000  0.56161500  0.65540600  1
  Cu  Cu42  1  0.75000000  0.93838500  0.15540600  1
  Cu  Cu43  1  0.75000000  0.43838500  0.34459400  1
