# generated using pymatgen
data_CuNiC11
_symmetry_space_group_name_H-M   'P 1'
_cell_length_a   5.01866700
_cell_length_b   8.62378904
_cell_length_c   13.09003787
_cell_angle_alpha   90.49617333
_cell_angle_beta   90.00088854
_cell_angle_gamma   92.54065765
_symmetry_Int_Tables_number   1
_chemical_formula_structural   CuNiC11
_chemical_formula_sum   'Cu4 Ni4 C44'
_cell_volume   565.95770099
_cell_formula_units_Z   4
loop_
 _symmetry_equiv_pos_site_id
 _symmetry_equiv_pos_as_xyz
  1  'x, y, z'
loop_
 _atom_site_type_symbol
 _atom_site_label
 _atom_site_symmetry_multiplicity
 _atom_site_fract_x
 _atom_site_fract_y
 _atom_site_fract_z
 _atom_site_occupancy
  C  C0  1  0.75437600  0.91377000  0.37741100  1
  C  C1  1  0.24761800  0.74574700  0.99913200  1
  C  C2  1  0.75169000  0.91572200  0.86839200  1
  C  C3  1  0.23982100  0.72990300  0.75539800  1
  C  C4  1  0.23750300  0.73375800  0.49795500  1
  C  C5  1  0.22653800  0.72800300  0.26118300  1
  C  C6  1  0.76189500  0.26892000  0.74116200  1
  C  C7  1  0.77102100  0.26965200  0.51043200  1
  C  C8  1  0.77076200  0.26549000  0.24404500  1
  C  C9  1  0.75670800  0.26580100  0.00445100  1
  C  C10  1  0.25126700  0.09216000  0.12960500  1
  C  C11  1  0.24939400  0.08517400  0.62523700  1
  C  C12  1  0.78746800  0.65154300  0.62620200  1
  C  C13  1  0.77414500  0.64731900  0.12604500  1
  C  C14  1  0.21197500  0.34684500  0.87427100  1
  C  C15  1  0.22390100  0.34988800  0.37538700  1
  Ni  Ni16  1  0.70833000  0.58254400  0.37582100  1
  Ni  Ni17  1  0.70193700  0.59010500  0.87189600  1
  Ni  Ni18  1  0.29436200  0.40915100  0.62639300  1
  Ni  Ni19  1  0.29035200  0.40792400  0.12586300  1
  Cu  Cu20  1  0.72019800  0.95745600  0.62331600  1
  Cu  Cu21  1  0.73257300  0.95792300  0.12759500  1
  Cu  Cu22  1  0.26987900  0.04935700  0.37530500  1
  Cu  Cu23  1  0.28350900  0.04575700  0.86974100  1
  C  C24  1  0.33904200  0.90138700  0.85937600  1
  C  C25  1  0.28054200  0.89908700  0.37651100  1
  C  C26  1  0.97733600  0.91558400  0.12656300  1
  C  C27  1  0.96344500  0.91201500  0.62270300  1
  C  C28  1  0.53959700  0.85219900  0.13258400  1
  C  C29  1  0.52181800  0.85520900  0.62119700  1
  C  C30  1  0.77774600  0.69035300  0.96767700  1
  C  C31  1  0.81693600  0.68925100  0.78113600  1
  C  C32  1  0.81027100  0.67562800  0.47125600  1
  C  C33  1  0.81462300  0.67807100  0.28375600  1
  C  C34  1  0.39273500  0.57254700  0.86218500  1
  C  C35  1  0.39501000  0.57553900  0.37503700  1
  C  C36  1  0.19110400  0.57555200  0.62617300  1
  C  C37  1  0.18163300  0.57243100  0.13346300  1
  C  C38  1  0.81421000  0.42584700  0.87507600  1
  C  C39  1  0.80637200  0.41489100  0.37459300  1
  C  C40  1  0.60614000  0.42135800  0.62675400  1
  C  C41  1  0.60229200  0.42198100  0.12350100  1
  C  C42  1  0.19071500  0.31064300  0.71900400  1
  C  C43  1  0.19065500  0.31080300  0.53333500  1
  C  C44  1  0.19574000  0.30316800  0.21611500  1
  C  C45  1  0.18588900  0.31594700  0.02997800  1
  C  C46  1  0.47880800  0.15057800  0.87630800  1
  C  C47  1  0.48489700  0.13875400  0.37544900  1
  C  C48  1  0.03805600  0.08798200  0.87387900  1
  C  C49  1  0.04140100  0.11495300  0.37412900  1
  C  C50  1  0.67452400  0.10355600  0.12438200  1
  C  C51  1  0.67124000  0.10477400  0.62564500  1
