# generated using pymatgen
data_Cu2Ni5C16
_symmetry_space_group_name_H-M   'P 1'
_cell_length_a   8.91998200
_cell_length_b   5.18731900
_cell_length_c   9.83410023
_cell_angle_alpha   79.29749843
_cell_angle_beta   90.00000000
_cell_angle_gamma   90.00000000
_symmetry_Int_Tables_number   1
_chemical_formula_structural   Cu2Ni5C16
_chemical_formula_sum   'Cu4 Ni10 C32'
_cell_volume   447.11619108
_cell_formula_units_Z   2
loop_
 _symmetry_equiv_pos_site_id
 _symmetry_equiv_pos_as_xyz
  1  'x, y, z'
loop_
 _atom_site_type_symbol
 _atom_site_label
 _atom_site_symmetry_multiplicity
 _atom_site_fract_x
 _atom_site_fract_y
 _atom_site_fract_z
 _atom_site_occupancy
  C  C0  1  0.91794600  0.48681800  0.26346600  1
  C  C1  1  0.58900600  0.00737400  0.74258200  1
  C  C2  1  0.57575400  0.75050800  0.49543500  1
  C  C3  1  0.58031800  0.49537200  0.25878300  1
  C  C4  1  0.41794600  0.51318200  0.73653400  1
  C  C5  1  0.07575400  0.24949200  0.50456500  1
  C  C6  1  0.08900600  0.99262600  0.25741800  1
  C  C7  1  0.08031800  0.50462800  0.74121700  1
  Ni  Ni8  1  0.92742500  0.24189500  0.99841500  1
  Ni  Ni9  1  0.91847900  0.75551300  0.50057200  1
  Ni  Ni10  1  0.73664800  0.98995300  0.26044300  1
  Ni  Ni11  1  0.74594500  0.51539100  0.74083600  1
  Ni  Ni12  1  0.58447000  0.25363400  0.00335400  1
  Ni  Ni13  1  0.41847900  0.24448700  0.49942800  1
  Ni  Ni14  1  0.42742500  0.75810500  0.00158500  1
  Ni  Ni15  1  0.23664800  0.01004700  0.73955700  1
  Ni  Ni16  1  0.24594500  0.48460900  0.25916400  1
  Ni  Ni17  1  0.08447000  0.74636600  0.99664600  1
  Cu  Cu18  1  0.74679900  0.24727100  0.50580800  1
  Cu  Cu19  1  0.75525700  0.75449500  0.99442600  1
  Cu  Cu20  1  0.25525700  0.24550500  0.00557400  1
  Cu  Cu21  1  0.24679900  0.75272900  0.49419200  1
  C  C22  1  0.89952600  0.10008200  0.37718300  1
  C  C23  1  0.92579000  0.88661100  0.10507500  1
  C  C24  1  0.92534500  0.59511000  0.89490100  1
  C  C25  1  0.75381800  0.85208000  0.61807400  1
  C  C26  1  0.74233500  0.16509800  0.87920300  1
  C  C27  1  0.90237500  0.41522800  0.61874800  1
  C  C28  1  0.75844300  0.64506200  0.37519800  1
  C  C29  1  0.57922400  0.13585300  0.39032500  1
  C  C30  1  0.60102400  0.85945200  0.12468600  1
  C  C31  1  0.74782600  0.33907000  0.12706400  1
  C  C32  1  0.59347100  0.64004900  0.86745300  1
  C  C33  1  0.42579000  0.11338900  0.89492500  1
  C  C34  1  0.39952600  0.89991800  0.62281700  1
  C  C35  1  0.57276300  0.36748700  0.61697600  1
  C  C36  1  0.25381800  0.14792000  0.38192600  1
  C  C37  1  0.40237500  0.58477200  0.38125200  1
  C  C38  1  0.42534500  0.40489000  0.10509900  1
  C  C39  1  0.24233500  0.83490200  0.12079700  1
  C  C40  1  0.10102400  0.14054800  0.87531400  1
  C  C41  1  0.25844300  0.35493800  0.62480200  1
  C  C42  1  0.24782600  0.66093000  0.87293600  1
  C  C43  1  0.07922400  0.86414700  0.60967500  1
  C  C44  1  0.07276300  0.63251300  0.38302400  1
  C  C45  1  0.09347100  0.35995100  0.13254700  1
