# generated using pymatgen
data_CuNi11C6
_symmetry_space_group_name_H-M   'P 1'
_cell_length_a   10.43981208
_cell_length_b   10.43981208
_cell_length_c   2.98370100
_cell_angle_alpha   90.00000000
_cell_angle_beta   90.00000000
_cell_angle_gamma   143.70016098
_symmetry_Int_Tables_number   1
_chemical_formula_structural   CuNi11C6
_chemical_formula_sum   'Cu1 Ni11 C6'
_cell_volume   192.51757193
_cell_formula_units_Z   1
loop_
 _symmetry_equiv_pos_site_id
 _symmetry_equiv_pos_as_xyz
  1  'x, y, z'
loop_
 _atom_site_type_symbol
 _atom_site_label
 _atom_site_symmetry_multiplicity
 _atom_site_fract_x
 _atom_site_fract_y
 _atom_site_fract_z
 _atom_site_occupancy
  C  C0  1  0.00772000  0.99228000  0.00000000  1
  C  C1  1  0.49881500  0.50118500  0.50000000  1
  C  C2  1  0.66428100  0.33571900  0.00000000  1
  C  C3  1  0.82774600  0.17225400  0.50000000  1
  C  C4  1  0.16759500  0.83240500  0.50000000  1
  C  C5  1  0.33384300  0.66615700  0.00000000  1
  Ni  Ni6  1  0.30685000  0.30758800  0.00000000  1
  Ni  Ni7  1  0.36005800  0.02339600  0.00000000  1
  Ni  Ni8  1  0.69241200  0.69315000  0.00000000  1
  Ni  Ni9  1  0.60049800  0.39950200  0.50000000  1
  Ni  Ni10  1  0.72529300  0.27470700  0.50000000  1
  Ni  Ni11  1  0.06952200  0.93047800  0.50000000  1
  Ni  Ni12  1  0.97660400  0.63994200  0.00000000  1
  Ni  Ni13  1  0.02385400  0.35863700  0.00000000  1
  Ni  Ni14  1  0.27003300  0.72996700  0.50000000  1
  Ni  Ni15  1  0.39694400  0.60305600  0.50000000  1
  Ni  Ni16  1  0.64136300  0.97614600  0.00000000  1
  Cu  Cu17  1  0.93535100  0.06464900  0.50000000  1
