# generated using pymatgen
data_Cu5Ni7C16
_symmetry_space_group_name_H-M   'P 1'
_cell_length_a   9.13075369
_cell_length_b   9.13075369
_cell_length_c   13.48696271
_cell_angle_alpha   81.57331071
_cell_angle_beta   98.42668929
_cell_angle_gamma   79.55543698
_symmetry_Int_Tables_number   1
_chemical_formula_structural   Cu5Ni7C16
_chemical_formula_sum   'Cu20 Ni28 C64'
_cell_volume   1076.39056393
_cell_formula_units_Z   4
loop_
 _symmetry_equiv_pos_site_id
 _symmetry_equiv_pos_as_xyz
  1  'x, y, z'
loop_
 _atom_site_type_symbol
 _atom_site_label
 _atom_site_symmetry_multiplicity
 _atom_site_fract_x
 _atom_site_fract_y
 _atom_site_fract_z
 _atom_site_occupancy
  C  C0  1  0.99927100  0.99927100  0.75000000  1
  C  C1  1  0.00072900  0.00072900  0.25000000  1
  C  C2  1  0.49471600  0.49471600  0.75000000  1
  C  C3  1  0.50528400  0.50528400  0.25000000  1
  C  C4  1  0.00000000  0.50000000  0.50000000  1
  C  C5  1  0.50000000  0.00000000  0.00000000  1
  C  C6  1  0.00000000  0.50000000  0.00000000  1
  C  C7  1  0.50000000  0.00000000  0.50000000  1
  C  C8  1  0.94401500  0.73440000  0.60229900  1
  C  C9  1  0.73440000  0.94401500  0.89770100  1
  C  C10  1  0.05598500  0.26560000  0.39770100  1
  C  C11  1  0.26560000  0.05598500  0.10229900  1
  C  C12  1  0.82766000  0.79511500  0.50060700  1
  C  C13  1  0.79511500  0.82766000  0.99939300  1
  C  C14  1  0.17234000  0.20488500  0.49939300  1
  C  C15  1  0.20488500  0.17234000  0.00060700  1
  C  C16  1  0.80665300  0.07478400  0.55797200  1
  C  C17  1  0.07478400  0.80665300  0.94202800  1
  C  C18  1  0.19334700  0.92521600  0.44202800  1
  C  C19  1  0.92521600  0.19334700  0.05797200  1
  C  C20  1  0.85025700  0.22922700  0.58724100  1
  C  C21  1  0.22922700  0.85025700  0.91275900  1
  C  C22  1  0.14974300  0.77077300  0.41275900  1
  C  C23  1  0.77077300  0.14974300  0.08724100  1
  C  C24  1  0.19351300  0.75563000  0.69444300  1
  C  C25  1  0.75563000  0.19351300  0.80555700  1
  C  C26  1  0.80648700  0.24437000  0.30555700  1
  C  C27  1  0.24437000  0.80648700  0.19444300  1
  C  C28  1  0.19364100  0.90000700  0.61148200  1
  C  C29  1  0.90000700  0.19364100  0.88851800  1
  C  C30  1  0.80635900  0.09999200  0.38851800  1
  C  C31  1  0.09999200  0.80635900  0.11148200  1
  C  C32  1  0.25324600  0.13445200  0.79562300  1
  C  C33  1  0.13445200  0.25324600  0.70437700  1
  C  C34  1  0.74675300  0.86554800  0.20437700  1
  C  C35  1  0.86554800  0.74675300  0.29562300  1
  C  C36  1  0.86960100  0.74473200  0.79377100  1
  C  C37  1  0.74473200  0.86960100  0.70622900  1
  C  C38  1  0.13039900  0.25526800  0.20622900  1
  C  C39  1  0.25526800  0.13039900  0.29377100  1
  C  C40  1  0.66642100  0.47095500  0.94928300  1
  C  C41  1  0.47095500  0.66642100  0.55071700  1
  C  C42  1  0.33357900  0.52904500  0.05071700  1
  C  C43  1  0.52904500  0.33357900  0.44928300  1
  C  C44  1  0.57240300  0.33932700  0.94688800  1
  C  C45  1  0.33932700  0.57240300  0.55311200  1
  C  C46  1  0.42759700  0.66067300  0.05311200  1
  C  C47  1  0.66067300  0.42759700  0.44688800  1
  C  C48  1  0.49616900  0.19309800  0.77013800  1
  C  C49  1  0.19309800  0.49616900  0.72986200  1
  C  C50  1  0.50383100  0.80690200  0.22986200  1
  C  C51  1  0.80690200  0.50383100  0.27013800  1
  C  C52  1  0.52379400  0.23805500  0.65439700  1
  C  C53  1  0.23805500  0.52379400  0.84560300  1
  C  C54  1  0.47620600  0.76194500  0.34560300  1
  C  C55  1  0.76194500  0.47620600  0.15439700  1
  C  C56  1  0.76390200  0.52545400  0.74035100  1
  C  C57  1  0.52545400  0.76390200  0.75964900  1
  C  C58  1  0.23609800  0.47454600  0.25964900  1
  C  C59  1  0.47454600  0.23609800  0.24035100  1
  C  C60  1  0.72548700  0.51983100  0.68658400  1
  C  C61  1  0.51983100  0.72548700  0.81341600  1
  C  C62  1  0.27451300  0.48016900  0.31341600  1
  C  C63  1  0.48016900  0.27451300  0.18658400  1
  Ni  Ni64  1  0.87092400  0.11826700  0.60703200  1
  Ni  Ni65  1  0.11826700  0.87092400  0.89296800  1
  Ni  Ni66  1  0.12907600  0.88173300  0.39296800  1
  Ni  Ni67  1  0.88173300  0.12907600  0.10703300  1
  Ni  Ni68  1  0.15321500  0.15321500  0.75000000  1
  Ni  Ni69  1  0.84678500  0.84678500  0.25000000  1
  Ni  Ni70  1  0.84774900  0.84774900  0.75000000  1
  Ni  Ni71  1  0.15225100  0.15225100  0.25000000  1
  Ni  Ni72  1  0.12946400  0.84987900  0.65354600  1
  Ni  Ni73  1  0.84987900  0.12946400  0.84645400  1
  Ni  Ni74  1  0.87053600  0.15012100  0.34645400  1
  Ni  Ni75  1  0.15012100  0.87053600  0.15354600  1
  Ni  Ni76  1  0.58859200  0.43290200  0.90496600  1
  Ni  Ni77  1  0.43290200  0.58859200  0.59503400  1
  Ni  Ni78  1  0.41140800  0.56709800  0.09503400  1
  Ni  Ni79  1  0.56709800  0.41140800  0.40496600  1
  Ni  Ni80  1  0.54021700  0.26330000  0.72485300  1
  Ni  Ni81  1  0.26330000  0.54021700  0.77514700  1
  Ni  Ni82  1  0.45978300  0.73670000  0.27514700  1
  Ni  Ni83  1  0.73670000  0.45978300  0.22485300  1
  Ni  Ni84  1  0.91278700  0.32790400  0.74124000  1
  Ni  Ni85  1  0.32790400  0.91278700  0.75876000  1
  Ni  Ni86  1  0.08721300  0.67209600  0.25876000  1
  Ni  Ni87  1  0.67209600  0.08721300  0.24124000  1
  Ni  Ni88  1  0.89958200  0.70345900  0.54045300  1
  Ni  Ni89  1  0.70345900  0.89958200  0.95954700  1
  Ni  Ni90  1  0.10041800  0.29654100  0.45954700  1
  Ni  Ni91  1  0.29654100  0.10041800  0.04045300  1
  Cu  Cu92  1  0.89682500  0.57438100  0.35949100  1
  Cu  Cu93  1  0.57438100  0.89682500  0.14050900  1
  Cu  Cu94  1  0.10317500  0.42561900  0.64050900  1
  Cu  Cu95  1  0.42561900  0.10317500  0.85949100  1
  Cu  Cu96  1  0.17711300  0.58086800  0.47948200  1
  Cu  Cu97  1  0.58086800  0.17711300  0.02051800  1
  Cu  Cu98  1  0.82288700  0.41913200  0.52051800  1
  Cu  Cu99  1  0.41913200  0.82288700  0.97948200  1
  Cu  Cu100  1  0.08926600  0.41477100  0.13902200  1
  Cu  Cu101  1  0.41477100  0.08926600  0.36097800  1
  Cu  Cu102  1  0.91073400  0.58522900  0.86097800  1
  Cu  Cu103  1  0.58522900  0.91073400  0.63902200  1
  Cu  Cu104  1  0.79466200  0.50388200  0.03530200  1
  Cu  Cu105  1  0.50388200  0.79466200  0.46469800  1
  Cu  Cu106  1  0.20533900  0.49611800  0.96469800  1
  Cu  Cu107  1  0.49611800  0.20533900  0.53530200  1
  Cu  Cu108  1  0.00947400  0.28430000  0.97506400  1
  Cu  Cu109  1  0.28430000  0.00947400  0.52493600  1
  Cu  Cu110  1  0.99052600  0.71570000  0.02493600  1
  Cu  Cu111  1  0.71570000  0.99052600  0.47506400  1
