# generated using pymatgen
data_Cu3(NiC8)5
_symmetry_space_group_name_H-M   'P 1'
_cell_length_a   5.23084400
_cell_length_b   6.03024198
_cell_length_c   16.20807146
_cell_angle_alpha   82.00287766
_cell_angle_beta   89.20286370
_cell_angle_gamma   89.35763446
_symmetry_Int_Tables_number   1
_chemical_formula_structural   Cu3(NiC8)5
_chemical_formula_sum   'Cu3 Ni5 C40'
_cell_volume   506.21219373
_cell_formula_units_Z   1
loop_
 _symmetry_equiv_pos_site_id
 _symmetry_equiv_pos_as_xyz
  1  'x, y, z'
loop_
 _atom_site_type_symbol
 _atom_site_label
 _atom_site_symmetry_multiplicity
 _atom_site_fract_x
 _atom_site_fract_y
 _atom_site_fract_z
 _atom_site_occupancy
  C  C0  1  0.85025300  0.06448800  0.38872900  1
  C  C1  1  0.15035400  0.43533800  0.11114800  1
  C  C2  1  0.65035100  0.18667600  0.85956100  1
  C  C3  1  0.34870200  0.31312900  0.63938000  1
  C  C4  1  0.64936600  0.68719100  0.35768600  1
  C  C5  1  0.34888600  0.81279700  0.14244600  1
  C  C6  1  0.84894400  0.56346800  0.89157900  1
  C  C7  1  0.15150200  0.93613100  0.60794300  1
  Ni  Ni8  1  0.66888000  0.27221600  0.04132000  1
  Ni  Ni9  1  0.16814900  0.02478400  0.78978300  1
  Ni  Ni10  1  0.83162600  0.47571700  0.71046800  1
  Ni  Ni11  1  0.66695600  0.77526900  0.53937900  1
  Ni  Ni12  1  0.33173600  0.72416200  0.96051300  1
  Cu  Cu13  1  0.33295000  0.22584800  0.46065800  1
  Cu  Cu14  1  0.17254000  0.52149800  0.29217800  1
  Cu  Cu15  1  0.83831400  0.97122200  0.20981700  1
  C  C16  1  0.33113500  0.03877800  0.29718400  1
  C  C17  1  0.82742000  0.28713100  0.54556600  1
  C  C18  1  0.67213300  0.46236000  0.20434400  1
  C  C19  1  0.16962200  0.21470800  0.95251300  1
  C  C20  1  0.83189400  0.78435900  0.04957100  1
  C  C21  1  0.33048100  0.53542100  0.79785200  1
  C  C22  1  0.16718600  0.71484200  0.45127200  1
  C  C23  1  0.66894700  0.96557800  0.70165700  1
  C  C24  1  0.59039500  0.01283900  0.30856400  1
  C  C25  1  0.18530200  0.17099500  0.34552400  1
  C  C26  1  0.70537400  0.17238800  0.48857700  1
  C  C27  1  0.28642300  0.33310200  0.00916900  1
  C  C28  1  0.78494900  0.08379300  0.75844200  1
  C  C29  1  0.81694200  0.32677100  0.15736100  1
  C  C30  1  0.31993200  0.08026900  0.90639500  1
  C  C31  1  0.08820700  0.26379500  0.55704400  1
  C  C32  1  0.40971500  0.48606300  0.19207100  1
  C  C33  1  0.91004800  0.23547000  0.93868700  1
  C  C34  1  0.68249500  0.41832400  0.59385300  1
  C  C35  1  0.21521900  0.41668500  0.74078100  1
  C  C36  1  0.79503500  0.58219200  0.25913600  1
  C  C37  1  0.31428700  0.57942800  0.40462500  1
  C  C38  1  0.09196100  0.76391700  0.06229600  1
  C  C39  1  0.58979500  0.51519400  0.81204300  1
  C  C40  1  0.90760900  0.73742600  0.43817000  1
  C  C41  1  0.68336800  0.91688400  0.09695500  1
  C  C42  1  0.17914600  0.66933800  0.84361500  1
  C  C43  1  0.20622100  0.92535100  0.24043000  1
  C  C44  1  0.71397800  0.66883700  0.99226200  1
  C  C45  1  0.28595200  0.83059700  0.50817400  1
  C  C46  1  0.82000800  0.83141600  0.65566600  1
  C  C47  1  0.40931100  0.98581500  0.68761200  1
