# generated using pymatgen
data_Cu12NiC14
_symmetry_space_group_name_H-M   'P 1'
_cell_length_a   9.99504300
_cell_length_b   10.53156800
_cell_length_c   15.40764700
_cell_angle_alpha   90.00000000
_cell_angle_beta   90.00000000
_cell_angle_gamma   90.00000000
_symmetry_Int_Tables_number   1
_chemical_formula_structural   Cu12NiC14
_chemical_formula_sum   'Cu48 Ni4 C56'
_cell_volume   1621.86246506
_cell_formula_units_Z   4
loop_
 _symmetry_equiv_pos_site_id
 _symmetry_equiv_pos_as_xyz
  1  'x, y, z'
loop_
 _atom_site_type_symbol
 _atom_site_label
 _atom_site_symmetry_multiplicity
 _atom_site_fract_x
 _atom_site_fract_y
 _atom_site_fract_z
 _atom_site_occupancy
  C  C0  1  0.95709600  0.00475800  0.11499900  1
  C  C1  1  0.54290400  0.99524200  0.61499900  1
  C  C2  1  0.45709600  0.49524200  0.88500100  1
  C  C3  1  0.04290400  0.50475800  0.38500100  1
  C  C4  1  0.91813700  0.18649600  0.78898800  1
  C  C5  1  0.58186300  0.81350400  0.28898800  1
  C  C6  1  0.41813700  0.31350400  0.21101200  1
  C  C7  1  0.08186300  0.68649600  0.71101200  1
  C  C8  1  0.95603300  0.50571800  0.95093500  1
  C  C9  1  0.54396700  0.49428200  0.45093500  1
  C  C10  1  0.45603300  0.99428200  0.04906500  1
  C  C11  1  0.04396700  0.00571800  0.54906500  1
  C  C12  1  0.80542500  0.58826200  0.98177500  1
  C  C13  1  0.69457500  0.41173800  0.48177500  1
  C  C14  1  0.30542500  0.91173800  0.01822500  1
  C  C15  1  0.19457500  0.08826200  0.51822500  1
  C  C16  1  0.96599300  0.64633600  0.01614400  1
  C  C17  1  0.53400700  0.35366400  0.51614400  1
  C  C18  1  0.46599300  0.85366400  0.98385600  1
  C  C19  1  0.03400700  0.14633600  0.48385600  1
  C  C20  1  0.07266800  0.51051700  0.03893200  1
  C  C21  1  0.42733200  0.48948300  0.53893200  1
  C  C22  1  0.57266800  0.98948300  0.96106800  1
  C  C23  1  0.92733200  0.01051700  0.46106800  1
  C  C24  1  0.97320600  0.36973600  0.01969600  1
  C  C25  1  0.52679400  0.63026400  0.51969600  1
  C  C26  1  0.47320600  0.13026400  0.98030400  1
  C  C27  1  0.02679400  0.86973600  0.48030400  1
  C  C28  1  0.81078900  0.41865900  0.98438000  1
  C  C29  1  0.68921100  0.58134100  0.48438000  1
  C  C30  1  0.31078900  0.08134100  0.01562000  1
  C  C31  1  0.18921100  0.91865900  0.51562000  1
  C  C32  1  0.73117000  0.50318000  0.07136700  1
  C  C33  1  0.76883000  0.49682000  0.57136700  1
  C  C34  1  0.23117000  0.99682000  0.92863300  1
  C  C35  1  0.26883000  0.00318000  0.42863300  1
  C  C36  1  0.82812700  0.64388000  0.09093600  1
  C  C37  1  0.67187300  0.35612000  0.59093600  1
  C  C38  1  0.32812700  0.85612000  0.90906400  1
  C  C39  1  0.17187300  0.14388000  0.40906400  1
  C  C40  1  0.99280900  0.59633700  0.12634900  1
  C  C41  1  0.50719100  0.40366300  0.62634900  1
  C  C42  1  0.49280900  0.90366300  0.87365100  1
  C  C43  1  0.00719100  0.09633700  0.37365100  1
  C  C44  1  0.99792100  0.42576700  0.12818700  1
  C  C45  1  0.50207900  0.57423300  0.62818700  1
  C  C46  1  0.49792100  0.07423300  0.87181300  1
  C  C47  1  0.00207900  0.92576700  0.37181300  1
  C  C48  1  0.83590800  0.36825200  0.09471100  1
  C  C49  1  0.66409200  0.63174800  0.59471100  1
  C  C50  1  0.33590800  0.13174800  0.90528900  1
  C  C51  1  0.16409200  0.86825200  0.40528900  1
  C  C52  1  0.84748600  0.50824300  0.15994000  1
  C  C53  1  0.65251400  0.49175700  0.65994000  1
  C  C54  1  0.34748600  0.99175700  0.84006000  1
  C  C55  1  0.15251400  0.00824300  0.34006000  1
  Ni  Ni56  1  0.86971500  0.86863500  0.80772700  1
  Ni  Ni57  1  0.63028500  0.13136500  0.30772700  1
  Ni  Ni58  1  0.36971500  0.63136500  0.19227300  1
  Ni  Ni59  1  0.13028500  0.36863500  0.69227300  1
  Cu  Cu60  1  0.99772100  0.50223500  0.86414000  1
  Cu  Cu61  1  0.50227900  0.49776500  0.36414000  1
  Cu  Cu62  1  0.49772100  0.99776500  0.13586000  1
  Cu  Cu63  1  0.00227900  0.00223500  0.63586000  1
  Cu  Cu64  1  0.73157400  0.65208100  0.91946100  1
  Cu  Cu65  1  0.76842600  0.34791900  0.41946100  1
  Cu  Cu66  1  0.23157400  0.84791900  0.08053900  1
  Cu  Cu67  1  0.26842600  0.15208100  0.58053900  1
  Cu  Cu68  1  0.00968900  0.76129000  0.98270200  1
  Cu  Cu69  1  0.49031100  0.23871000  0.48270200  1
  Cu  Cu70  1  0.50968900  0.73871000  0.01729800  1
  Cu  Cu71  1  0.99031100  0.26129000  0.51729800  1
  Cu  Cu72  1  0.21056500  0.51153000  0.02636600  1
  Cu  Cu73  1  0.28943500  0.48847000  0.52636600  1
  Cu  Cu74  1  0.71056500  0.98847000  0.97363400  1
  Cu  Cu75  1  0.78943500  0.01153000  0.47363400  1
  Cu  Cu76  1  0.02271400  0.25534000  0.98703700  1
  Cu  Cu77  1  0.47728600  0.74466000  0.48703700  1
  Cu  Cu78  1  0.52271400  0.24466000  0.01296300  1
  Cu  Cu79  1  0.97728600  0.75534000  0.51296300  1
  Cu  Cu80  1  0.74200600  0.34572800  0.92311200  1
  Cu  Cu81  1  0.75799400  0.65427200  0.42311200  1
  Cu  Cu82  1  0.24200600  0.15427200  0.07688800  1
  Cu  Cu83  1  0.25799400  0.84572800  0.57688800  1
  Cu  Cu84  1  0.59322000  0.49712900  0.08537800  1
  Cu  Cu85  1  0.90678000  0.50287100  0.58537800  1
  Cu  Cu86  1  0.09322000  0.00287100  0.91462200  1
  Cu  Cu87  1  0.40678000  0.99712900  0.41462200  1
  Cu  Cu88  1  0.77162900  0.75668400  0.12262200  1
  Cu  Cu89  1  0.72837100  0.24331600  0.62262200  1
  Cu  Cu90  1  0.27162900  0.74331600  0.87737800  1
  Cu  Cu91  1  0.22837100  0.25668400  0.37737800  1
  Cu  Cu92  1  0.06425600  0.66610500  0.18735200  1
  Cu  Cu93  1  0.43574400  0.33389500  0.68735200  1
  Cu  Cu94  1  0.56425600  0.83389500  0.81264800  1
  Cu  Cu95  1  0.93574400  0.16610500  0.31264800  1
  Cu  Cu96  1  0.07638400  0.36262800  0.18981200  1
  Cu  Cu97  1  0.42361600  0.63737200  0.68981200  1
  Cu  Cu98  1  0.57638400  0.13737200  0.81018800  1
  Cu  Cu99  1  0.92361600  0.86262800  0.31018800  1
  Cu  Cu100  1  0.78404200  0.25430400  0.12638200  1
  Cu  Cu101  1  0.71595800  0.74569600  0.62638200  1
  Cu  Cu102  1  0.28404200  0.24569600  0.87361800  1
  Cu  Cu103  1  0.21595800  0.75430400  0.37361800  1
  Cu  Cu104  1  0.80398700  0.51171100  0.24593100  1
  Cu  Cu105  1  0.69601300  0.48828900  0.74593100  1
  Cu  Cu106  1  0.30398700  0.98828900  0.75406900  1
  Cu  Cu107  1  0.19601300  0.01171100  0.25406900  1
