# generated using pymatgen
data_Cu2NiC9
_symmetry_space_group_name_H-M   'P 1'
_cell_length_a   5.60010700
_cell_length_b   9.78829700
_cell_length_c   11.30303999
_cell_angle_alpha   54.93654900
_cell_angle_beta   90.00000000
_cell_angle_gamma   90.00000000
_symmetry_Int_Tables_number   1
_chemical_formula_structural   Cu2NiC9
_chemical_formula_sum   'Cu8 Ni4 C36'
_cell_volume   507.13791969
_cell_formula_units_Z   4
loop_
 _symmetry_equiv_pos_site_id
 _symmetry_equiv_pos_as_xyz
  1  'x, y, z'
loop_
 _atom_site_type_symbol
 _atom_site_label
 _atom_site_symmetry_multiplicity
 _atom_site_fract_x
 _atom_site_fract_y
 _atom_site_fract_z
 _atom_site_occupancy
  C  C0  1  0.24444100  0.42612600  0.96367600  1
  C  C1  1  0.00249700  0.24509100  0.23560600  1
  C  C2  1  0.74444100  0.57387400  0.53632400  1
  C  C3  1  0.75332900  0.07856600  0.13419000  1
  C  C4  1  0.49750300  0.24509100  0.73560600  1
  C  C5  1  0.25332900  0.92143400  0.36581000  1
  C  C6  1  0.74667100  0.07856600  0.63419000  1
  C  C7  1  0.50249700  0.75490900  0.26439400  1
  C  C8  1  0.24667100  0.92143400  0.86581000  1
  C  C9  1  0.25555900  0.42612600  0.46367600  1
  C  C10  1  0.99750300  0.75490900  0.76439400  1
  C  C11  1  0.75555900  0.57387400  0.03632400  1
  Ni  Ni12  1  0.50258200  0.24814200  0.24344100  1
  Ni  Ni13  1  0.99741800  0.24814200  0.74344100  1
  Ni  Ni14  1  0.00258200  0.75185800  0.25655900  1
  Ni  Ni15  1  0.49741800  0.75185800  0.75655900  1
  Cu  Cu16  1  0.23633600  0.62384700  0.60526600  1
  Cu  Cu17  1  0.73633600  0.37615300  0.89473400  1
  Cu  Cu18  1  0.74159100  0.87294200  0.47824200  1
  Cu  Cu19  1  0.24159100  0.12705800  0.02175800  1
  Cu  Cu20  1  0.75840900  0.87294200  0.97824200  1
  Cu  Cu21  1  0.25840900  0.12705800  0.52175800  1
  Cu  Cu22  1  0.26366400  0.62384700  0.10526600  1
  Cu  Cu23  1  0.76366400  0.37615300  0.39473400  1
  C  C24  1  0.72202800  0.57252800  0.86742400  1
  C  C25  1  0.24336400  0.61149300  0.76793500  1
  C  C26  1  0.49345200  0.74206900  0.49850100  1
  C  C27  1  0.99345200  0.25793100  0.00149900  1
  C  C28  1  0.74336400  0.38850700  0.73206500  1
  C  C29  1  0.74711800  0.89280800  0.62442100  1
  C  C30  1  0.49392000  0.24683200  0.01299400  1
  C  C31  1  0.22202800  0.42747200  0.63257600  1
  C  C32  1  0.72439300  0.06729800  0.30838400  1
  C  C33  1  0.22439300  0.93270200  0.19161600  1
  C  C34  1  0.99392000  0.75316800  0.48700600  1
  C  C35  1  0.24711800  0.10719200  0.87557900  1
  C  C36  1  0.75288200  0.89280800  0.12442100  1
  C  C37  1  0.00608000  0.24683200  0.51299400  1
  C  C38  1  0.77560700  0.06729800  0.80838400  1
  C  C39  1  0.27560700  0.93270200  0.69161600  1
  C  C40  1  0.77797200  0.57252800  0.36742400  1
  C  C41  1  0.50608000  0.75316800  0.98700600  1
  C  C42  1  0.25288200  0.10719200  0.37557900  1
  C  C43  1  0.25663600  0.61149300  0.26793500  1
  C  C44  1  0.00654800  0.74206900  0.99850100  1
  C  C45  1  0.50654800  0.25793100  0.50149900  1
  C  C46  1  0.75663600  0.38850700  0.23206500  1
  C  C47  1  0.27797200  0.42747200  0.13257600  1
