# generated using pymatgen
data_Cu5Ni11C57
_symmetry_space_group_name_H-M   'P 1'
_cell_length_a   5.13793008
_cell_length_b   5.13793008
_cell_length_c   33.16918400
_cell_angle_alpha   90.00000000
_cell_angle_beta   90.00000000
_cell_angle_gamma   120.00000108
_symmetry_Int_Tables_number   1
_chemical_formula_structural   Cu5Ni11C57
_chemical_formula_sum   'Cu5 Ni11 C57'
_cell_volume   758.30129005
_cell_formula_units_Z   1
loop_
 _symmetry_equiv_pos_site_id
 _symmetry_equiv_pos_as_xyz
  1  'x, y, z'
loop_
 _atom_site_type_symbol
 _atom_site_label
 _atom_site_symmetry_multiplicity
 _atom_site_fract_x
 _atom_site_fract_y
 _atom_site_fract_z
 _atom_site_occupancy
  C  C0  1  0.00000000  0.00000000  0.19900600  1
  C  C1  1  0.66666700  0.33333300  0.05378400  1
  C  C2  1  0.66666700  0.33333300  0.26085100  1
  C  C3  1  0.66666700  0.33333300  0.44612700  1
  C  C4  1  0.66666700  0.33333300  0.55348800  1
  C  C5  1  0.66666700  0.33333300  0.71954400  1
  C  C6  1  0.66666700  0.33333300  0.78045500  1
  C  C7  1  0.66666700  0.33333300  0.94645700  1
  C  C8  1  0.00000000  0.00000000  0.87128600  1
  C  C9  1  0.00000000  0.00000000  0.37239100  1
  C  C10  1  0.00000000  0.00000000  0.69856500  1
  C  C11  1  0.33333300  0.66666700  0.30306100  1
  C  C12  1  0.33333300  0.66666700  0.80141700  1
  C  C13  1  0.33333300  0.66666700  0.62868200  1
  C  C14  1  0.33333300  0.66666700  0.12689700  1
  Ni  Ni15  1  0.00000000  0.00000000  0.08065400  1
  Ni  Ni16  1  0.00000000  0.00000000  0.98993600  1
  Ni  Ni17  1  0.00000000  0.00000000  0.48987000  1
  Ni  Ni18  1  0.00000000  0.00000000  0.58034900  1
  Ni  Ni19  1  0.00000000  0.00000000  0.28608000  1
  Ni  Ni20  1  0.00000000  0.00000000  0.78313600  1
  Ni  Ni21  1  0.33333300  0.66666700  0.71693800  1
  Ni  Ni22  1  0.33333300  0.66666700  0.51008000  1
  Ni  Ni23  1  0.33333300  0.66666700  0.41925600  1
  Ni  Ni24  1  0.33333300  0.66666700  0.01015300  1
  Ni  Ni25  1  0.33333300  0.66666700  0.91973700  1
  Cu  Cu26  1  0.66666700  0.33333300  0.14554600  1
  Cu  Cu27  1  0.66666700  0.33333300  0.35420600  1
  Cu  Cu28  1  0.66666700  0.33333300  0.64393200  1
  Cu  Cu29  1  0.66666700  0.33333300  0.85607800  1
  Cu  Cu30  1  0.33333300  0.66666700  0.21661800  1
  C  C31  1  0.67098200  0.95810800  0.25039600  1
  C  C32  1  0.70307500  0.04040300  0.10734900  1
  C  C33  1  0.71547100  0.04778100  0.81999900  1
  C  C34  1  0.68840600  0.96602800  0.53443700  1
  C  C35  1  0.66655700  0.69585900  0.74998900  1
  C  C36  1  0.96288000  0.29872600  0.60710300  1
  C  C37  1  0.95967100  0.28817400  0.32017500  1
  C  C38  1  0.68844800  0.72252100  0.03449000  1
  C  C39  1  0.70127400  0.66415400  0.60710300  1
  C  C40  1  0.71182600  0.67149700  0.32017500  1
  C  C41  1  0.03407300  0.31155200  0.03449000  1
  C  C42  1  0.27762200  0.31159400  0.53443700  1
  C  C43  1  0.95221900  0.66769100  0.81999900  1
  C  C44  1  0.95959700  0.66267200  0.10734900  1
  C  C45  1  0.03397200  0.72237800  0.53443700  1
  C  C46  1  0.33230900  0.28452900  0.81999900  1
  C  C47  1  0.33732800  0.29692500  0.10734900  1
  C  C48  1  0.04189200  0.71287500  0.25039600  1
  C  C49  1  0.99652200  0.62648400  0.39224000  1
  C  C50  1  0.00095300  0.61894700  0.68000100  1
  C  C51  1  0.05565200  0.70049200  0.96554200  1
  C  C52  1  0.27747900  0.96592700  0.03449000  1
  C  C53  1  0.32850300  0.04032900  0.32017500  1
  C  C54  1  0.33584600  0.03712000  0.60710300  1
  C  C55  1  0.30414100  0.97069700  0.74998900  1
  C  C56  1  0.99746400  0.36802400  0.89292200  1
  C  C57  1  0.00589500  0.37218600  0.17847400  1
  C  C58  1  0.29926700  0.94409600  0.46542000  1
  C  C59  1  0.37056000  0.00253600  0.89292200  1
  C  C60  1  0.02930300  0.33344300  0.74998900  1
  C  C61  1  0.36629100  0.99410500  0.17847400  1
  C  C62  1  0.05590400  0.35517100  0.46542000  1
  C  C63  1  0.29950800  0.35516000  0.96554200  1
  C  C64  1  0.61799400  0.99904700  0.68000100  1
  C  C65  1  0.28712500  0.32901800  0.25039600  1
  C  C66  1  0.62996100  0.00347800  0.39224000  1
  C  C67  1  0.64484000  0.94434800  0.96554200  1
  C  C68  1  0.38105300  0.38200600  0.68000100  1
  C  C69  1  0.37351600  0.37003900  0.39224000  1
  C  C70  1  0.64482900  0.70073300  0.46542000  1
  C  C71  1  0.62781400  0.63370900  0.17847400  1
  C  C72  1  0.63197600  0.62944000  0.89292200  1
