# generated using pymatgen
data_Cu3(NiC6)4
_symmetry_space_group_name_H-M   'P 1'
_cell_length_a   2.93696800
_cell_length_b   9.11207300
_cell_length_c   25.07677400
_cell_angle_alpha   90.00000000
_cell_angle_beta   90.00000000
_cell_angle_gamma   90.00000000
_symmetry_Int_Tables_number   1
_chemical_formula_structural   Cu3(NiC6)4
_chemical_formula_sum   'Cu6 Ni8 C48'
_cell_volume   671.10128593
_cell_formula_units_Z   2
loop_
 _symmetry_equiv_pos_site_id
 _symmetry_equiv_pos_as_xyz
  1  'x, y, z'
loop_
 _atom_site_type_symbol
 _atom_site_label
 _atom_site_symmetry_multiplicity
 _atom_site_fract_x
 _atom_site_fract_y
 _atom_site_fract_z
 _atom_site_occupancy
  C  C0  1  0.00000000  0.17786300  0.99644400  1
  C  C1  1  0.00000000  0.18717700  0.20218400  1
  C  C2  1  0.00000000  0.31282300  0.70218400  1
  C  C3  1  0.00000000  0.32213700  0.49644400  1
  C  C4  1  0.00000000  0.67786300  0.50355600  1
  C  C5  1  0.00000000  0.68717700  0.29781600  1
  C  C6  1  0.00000000  0.81282300  0.79781600  1
  C  C7  1  0.00000000  0.82213700  0.00355600  1
  C  C8  1  0.00000000  0.99629800  0.10575500  1
  C  C9  1  0.00000000  0.50370200  0.60575500  1
  C  C10  1  0.00000000  0.49629800  0.39424500  1
  C  C11  1  0.00000000  0.00370200  0.89424500  1
  Ni  Ni12  1  0.00000000  0.00809700  0.31120700  1
  Ni  Ni13  1  0.50000000  0.14684200  0.58629800  1
  Ni  Ni14  1  0.50000000  0.35315800  0.08629800  1
  Ni  Ni15  1  0.00000000  0.49190300  0.81120700  1
  Ni  Ni16  1  0.00000000  0.50809700  0.18879300  1
  Ni  Ni17  1  0.50000000  0.64684200  0.91370200  1
  Ni  Ni18  1  0.50000000  0.85315800  0.41370200  1
  Ni  Ni19  1  0.00000000  0.99190300  0.68879300  1
  Cu  Cu20  1  0.00000000  0.00000000  0.50000000  1
  Cu  Cu21  1  0.50000000  0.15356500  0.80432600  1
  Cu  Cu22  1  0.50000000  0.34643500  0.30432600  1
  Cu  Cu23  1  0.00000000  0.50000000  0.00000000  1
  Cu  Cu24  1  0.50000000  0.65356500  0.69567400  1
  Cu  Cu25  1  0.50000000  0.84643500  0.19567400  1
  C  C26  1  0.00000000  0.99303900  0.41934700  1
  C  C27  1  0.00000000  0.00696100  0.58065300  1
  C  C28  1  0.50000000  0.04212400  0.94230500  1
  C  C29  1  0.50000000  0.05269500  0.16051500  1
  C  C30  1  0.50000000  0.11627500  0.66169600  1
  C  C31  1  0.00000000  0.12494800  0.75292900  1
  C  C32  1  0.50000000  0.15461700  0.50779400  1
  C  C33  1  0.50000000  0.12906300  0.28555900  1
  C  C34  1  0.00000000  0.18594700  0.85803200  1
  C  C35  1  0.00000000  0.21511000  0.08624600  1
  C  C36  1  0.00000000  0.28489000  0.58624600  1
  C  C37  1  0.00000000  0.31405300  0.35803200  1
  C  C38  1  0.50000000  0.37093700  0.78555900  1
  C  C39  1  0.50000000  0.34538300  0.00779400  1
  C  C40  1  0.00000000  0.37505200  0.25292900  1
  C  C41  1  0.50000000  0.38372500  0.16169600  1
  C  C42  1  0.50000000  0.44730500  0.66051500  1
  C  C43  1  0.50000000  0.45787600  0.44230500  1
  C  C44  1  0.00000000  0.49303900  0.08065300  1
  C  C45  1  0.00000000  0.50696100  0.91934700  1
  C  C46  1  0.50000000  0.54212400  0.55769500  1
  C  C47  1  0.50000000  0.55269500  0.33948500  1
  C  C48  1  0.50000000  0.61627500  0.83830400  1
  C  C49  1  0.00000000  0.62494800  0.74707100  1
  C  C50  1  0.50000000  0.65461700  0.99220600  1
  C  C51  1  0.50000000  0.62906300  0.21444100  1
  C  C52  1  0.00000000  0.68594700  0.64196800  1
  C  C53  1  0.00000000  0.71511000  0.41375400  1
  C  C54  1  0.00000000  0.78489000  0.91375400  1
  C  C55  1  0.00000000  0.81405300  0.14196800  1
  C  C56  1  0.50000000  0.87093700  0.71444100  1
  C  C57  1  0.50000000  0.84538300  0.49220600  1
  C  C58  1  0.00000000  0.87505200  0.24707100  1
  C  C59  1  0.50000000  0.88372500  0.33830400  1
  C  C60  1  0.50000000  0.94730500  0.83948500  1
  C  C61  1  0.50000000  0.95787600  0.05769500  1
