# generated using pymatgen
data_CuNiC3
_symmetry_space_group_name_H-M   'P 1'
_cell_length_a   13.21367952
_cell_length_b   13.21367952
_cell_length_c   5.83720921
_cell_angle_alpha   77.30273421
_cell_angle_beta   77.30273421
_cell_angle_gamma   25.71058258
_symmetry_Int_Tables_number   1
_chemical_formula_structural   CuNiC3
_chemical_formula_sum   'Cu8 Ni8 C24'
_cell_volume   430.76494273
_cell_formula_units_Z   8
loop_
 _symmetry_equiv_pos_site_id
 _symmetry_equiv_pos_as_xyz
  1  'x, y, z'
loop_
 _atom_site_type_symbol
 _atom_site_label
 _atom_site_symmetry_multiplicity
 _atom_site_fract_x
 _atom_site_fract_y
 _atom_site_fract_z
 _atom_site_occupancy
  Ni  Ni0  1  0.00377500  0.00377500  0.99193700  1
  Ni  Ni1  1  0.53964200  0.53964200  0.69918900  1
  Ni  Ni2  1  0.53949000  0.53949000  0.21783900  1
  Ni  Ni3  1  0.66140000  0.66140000  0.34173500  1
  Ni  Ni4  1  0.20778900  0.20778900  0.53944000  1
  Ni  Ni5  1  0.75391100  0.75391100  0.74400300  1
  Ni  Ni6  1  0.87778300  0.87778300  0.86540800  1
  Ni  Ni7  1  0.41502300  0.41502300  0.07462300  1
  Cu  Cu8  1  0.88130000  0.36939500  0.87327600  1
  Cu  Cu9  1  0.36939500  0.88130000  0.87327600  1
  Cu  Cu10  1  0.20746100  0.20746100  0.04112300  1
  Cu  Cu11  1  0.53432200  0.04709500  0.20583800  1
  Cu  Cu12  1  0.04709500  0.53432200  0.20583800  1
  Cu  Cu13  1  0.87777300  0.87777300  0.37462500  1
  Cu  Cu14  1  0.70917500  0.20929900  0.53870400  1
  Cu  Cu15  1  0.20929900  0.70917500  0.53870400  1
  C  C16  1  0.74183100  0.32923900  0.46195200  1
  C  C17  1  0.32923900  0.74183100  0.46195200  1
  C  C18  1  0.77187800  0.31194200  0.95520500  1
  C  C19  1  0.31194200  0.77187800  0.95520500  1
  C  C20  1  0.61914400  0.61914400  0.12741300  1
  C  C21  1  0.61879300  0.61879300  0.63683400  1
  C  C22  1  0.12978300  0.12978300  0.09418700  1
  C  C23  1  0.13595900  0.13595900  0.64310500  1
  C  C24  1  0.45861600  0.96357300  0.78155000  1
  C  C25  1  0.96357300  0.45861600  0.78155000  1
  C  C26  1  0.95810700  0.45100200  0.30095300  1
  C  C27  1  0.45100200  0.95810700  0.30095300  1
  C  C28  1  0.28481900  0.28481900  0.98817100  1
  C  C29  1  0.27994700  0.27994700  0.43818000  1
  C  C30  1  0.79470200  0.79470200  0.44702500  1
  C  C31  1  0.79694100  0.79694100  0.95469700  1
  C  C32  1  0.11411900  0.63566600  0.10782800  1
  C  C33  1  0.63566600  0.11411900  0.10782800  1
  C  C34  1  0.66844200  0.09587100  0.62896200  1
  C  C35  1  0.09587100  0.66844200  0.62896200  1
  C  C36  1  0.95795800  0.95795800  0.79956200  1
  C  C37  1  0.96041900  0.96041900  0.28565100  1
  C  C38  1  0.46082900  0.46082900  0.78972400  1
  C  C39  1  0.45966800  0.45966800  0.27659400  1
