# generated using pymatgen
data_CuNiC2
_symmetry_space_group_name_H-M   'P 1'
_cell_length_a   5.97612238
_cell_length_b   5.97612238
_cell_length_c   9.39338851
_cell_angle_alpha   70.34339459
_cell_angle_beta   70.34339459
_cell_angle_gamma   86.23252379
_symmetry_Int_Tables_number   1
_chemical_formula_structural   CuNiC2
_chemical_formula_sum   'Cu8 Ni8 C16'
_cell_volume   297.08969630
_cell_formula_units_Z   8
loop_
 _symmetry_equiv_pos_site_id
 _symmetry_equiv_pos_as_xyz
  1  'x, y, z'
loop_
 _atom_site_type_symbol
 _atom_site_label
 _atom_site_symmetry_multiplicity
 _atom_site_fract_x
 _atom_site_fract_y
 _atom_site_fract_z
 _atom_site_occupancy
  C  C0  1  0.54767200  0.29704800  0.13267500  1
  C  C1  1  0.29704800  0.54767200  0.63267500  1
  C  C2  1  0.19787800  0.94729200  0.36887100  1
  C  C3  1  0.54396500  0.82683000  0.12493100  1
  C  C4  1  0.19645100  0.43989200  0.38126600  1
  C  C5  1  0.07077000  0.82179000  0.12375100  1
  C  C6  1  0.94729200  0.19787800  0.86887100  1
  C  C7  1  0.82683000  0.54396500  0.62493100  1
  C  C8  1  0.43989200  0.19645100  0.88126600  1
  C  C9  1  0.82179000  0.07077000  0.62375100  1
  C  C10  1  0.68117500  0.44118800  0.35654800  1
  C  C11  1  0.44118800  0.68117500  0.85654800  1
  C  C12  1  0.06439900  0.30021000  0.11600000  1
  C  C13  1  0.30021000  0.06439900  0.61600000  1
  C  C14  1  0.67449600  0.93991400  0.37665400  1
  C  C15  1  0.93991400  0.67449600  0.87665400  1
  Ni  Ni16  1  0.80551800  0.05202900  0.14868300  1
  Ni  Ni17  1  0.05202900  0.80551800  0.64868300  1
  Ni  Ni18  1  0.29668100  0.07766300  0.12484800  1
  Ni  Ni19  1  0.83831300  0.55406400  0.10850500  1
  Ni  Ni20  1  0.07766300  0.29668100  0.62484800  1
  Ni  Ni21  1  0.55406400  0.83831300  0.60850500  1
  Ni  Ni22  1  0.44845400  0.18148800  0.37830000  1
  Ni  Ni23  1  0.18148800  0.44845400  0.87830000  1
  Cu  Cu24  1  0.43158600  0.67935100  0.37146500  1
  Cu  Cu25  1  0.67935100  0.43158600  0.87146500  1
  Cu  Cu26  1  0.92034400  0.68942200  0.38343800  1
  Cu  Cu27  1  0.31260100  0.56896900  0.13069000  1
  Cu  Cu28  1  0.68942200  0.92034400  0.88343800  1
  Cu  Cu29  1  0.56896900  0.31260100  0.63069000  1
  Cu  Cu30  1  0.94936700  0.20318100  0.37337400  1
  Cu  Cu31  1  0.20318100  0.94936700  0.87337400  1
