# generated using pymatgen
data_Cu2NiC4
_symmetry_space_group_name_H-M   'P 1'
_cell_length_a   3.00851100
_cell_length_b   9.25103200
_cell_length_c   10.76849400
_cell_angle_alpha   90.00000000
_cell_angle_beta   90.00000000
_cell_angle_gamma   90.00000000
_symmetry_Int_Tables_number   1
_chemical_formula_structural   Cu2NiC4
_chemical_formula_sum   'Cu8 Ni4 C16'
_cell_volume   299.70691088
_cell_formula_units_Z   4
loop_
 _symmetry_equiv_pos_site_id
 _symmetry_equiv_pos_as_xyz
  1  'x, y, z'
loop_
 _atom_site_type_symbol
 _atom_site_label
 _atom_site_symmetry_multiplicity
 _atom_site_fract_x
 _atom_site_fract_y
 _atom_site_fract_z
 _atom_site_occupancy
  Ni  Ni0  1  0.75000000  0.24199900  0.34505100  1
  Ni  Ni1  1  0.25000000  0.25800100  0.84505100  1
  Ni  Ni2  1  0.75000000  0.74199900  0.15494900  1
  Ni  Ni3  1  0.25000000  0.75800100  0.65494900  1
  Cu  Cu4  1  0.75000000  0.08337900  0.60467100  1
  Cu  Cu5  1  0.75000000  0.06363600  0.11270900  1
  Cu  Cu6  1  0.25000000  0.43636400  0.61270900  1
  Cu  Cu7  1  0.25000000  0.41662100  0.10467100  1
  Cu  Cu8  1  0.75000000  0.58337900  0.89532900  1
  Cu  Cu9  1  0.75000000  0.56363600  0.38729100  1
  Cu  Cu10  1  0.25000000  0.93636400  0.88729100  1
  Cu  Cu11  1  0.25000000  0.91662100  0.39532900  1
  C  C12  1  0.25000000  0.02980500  0.71584500  1
  C  C13  1  0.75000000  0.08120000  0.92923900  1
  C  C14  1  0.25000000  0.11576900  0.47664100  1
  C  C15  1  0.25000000  0.20363900  0.15864000  1
  C  C16  1  0.75000000  0.29636100  0.65864000  1
  C  C17  1  0.75000000  0.38423100  0.97664100  1
  C  C18  1  0.25000000  0.41880000  0.42923900  1
  C  C19  1  0.75000000  0.47019500  0.21584500  1
  C  C20  1  0.25000000  0.52980500  0.78415500  1
  C  C21  1  0.75000000  0.58120000  0.57076100  1
  C  C22  1  0.25000000  0.61576900  0.02335900  1
  C  C23  1  0.25000000  0.70363900  0.34136000  1
  C  C24  1  0.75000000  0.79636100  0.84136000  1
  C  C25  1  0.75000000  0.88423100  0.52335900  1
  C  C26  1  0.25000000  0.91880000  0.07076100  1
  C  C27  1  0.75000000  0.97019500  0.28415500  1
