# generated using pymatgen
data_Cu2NiC9
_symmetry_space_group_name_H-M   'P 1'
_cell_length_a   6.68709020
_cell_length_b   6.68709020
_cell_length_c   5.98645709
_cell_angle_alpha   76.77278672
_cell_angle_beta   76.77278672
_cell_angle_gamma   25.77773266
_symmetry_Int_Tables_number   1
_chemical_formula_structural   Cu2NiC9
_chemical_formula_sum   'Cu2 Ni1 C9'
_cell_volume   113.16404722
_cell_formula_units_Z   1
loop_
 _symmetry_equiv_pos_site_id
 _symmetry_equiv_pos_as_xyz
  1  'x, y, z'
loop_
 _atom_site_type_symbol
 _atom_site_label
 _atom_site_symmetry_multiplicity
 _atom_site_fract_x
 _atom_site_fract_y
 _atom_site_fract_z
 _atom_site_occupancy
  C  C0  1  0.00000000  0.00000000  0.00000000  1
  C  C1  1  0.66575900  0.66575900  0.66615400  1
  C  C2  1  0.33424100  0.33424100  0.33384600  1
  Ni  Ni3  1  0.00000000  0.00000000  0.50000000  1
  Cu  Cu4  1  0.66668700  0.66668700  0.16709600  1
  Cu  Cu5  1  0.33331300  0.33331300  0.83290400  1
  C  C6  1  0.16096000  0.16096000  0.40491000  1
  C  C7  1  0.82877800  0.82877800  0.07174100  1
  C  C8  1  0.83904000  0.83904000  0.59509000  1
  C  C9  1  0.49493300  0.49493300  0.73483000  1
  C  C10  1  0.50506700  0.50506700  0.26517000  1
  C  C11  1  0.17122200  0.17122200  0.92825900  1
