# generated using pymatgen
data_CuNi5C3
_symmetry_space_group_name_H-M   'P 1'
_cell_length_a   5.54976087
_cell_length_b   5.54976087
_cell_length_c   7.30370107
_cell_angle_alpha   70.88119254
_cell_angle_beta   70.88119254
_cell_angle_gamma   70.70146760
_symmetry_Int_Tables_number   1
_chemical_formula_structural   CuNi5C3
_chemical_formula_sum   'Cu2 Ni10 C6'
_cell_volume   194.44223369
_cell_formula_units_Z   2
loop_
 _symmetry_equiv_pos_site_id
 _symmetry_equiv_pos_as_xyz
  1  'x, y, z'
loop_
 _atom_site_type_symbol
 _atom_site_label
 _atom_site_symmetry_multiplicity
 _atom_site_fract_x
 _atom_site_fract_y
 _atom_site_fract_z
 _atom_site_occupancy
  C  C0  1  0.66960700  0.66960700  0.83585800  1
  C  C1  1  0.34837800  0.34837800  0.67091200  1
  C  C2  1  0.65162200  0.65162200  0.32908800  1
  C  C3  1  0.33039300  0.33039300  0.16414200  1
  C  C4  1  0.00000000  0.00000000  0.50000000  1
  C  C5  1  0.00000000  0.00000000  0.00000000  1
  Ni  Ni6  1  0.64596100  0.03029800  0.66938900  1
  Ni  Ni7  1  0.96970200  0.35403900  0.33061100  1
  Ni  Ni8  1  0.22835300  0.22835300  0.95840900  1
  Ni  Ni9  1  0.57506000  0.57506000  0.62099500  1
  Ni  Ni10  1  0.77164700  0.77164700  0.04159100  1
  Ni  Ni11  1  0.42494000  0.42494000  0.37900500  1
  Ni  Ni12  1  0.35403900  0.96970200  0.33061100  1
  Ni  Ni13  1  0.03029800  0.64596100  0.66938900  1
  Ni  Ni14  1  0.69519900  0.30480100  0.00000000  1
  Ni  Ni15  1  0.30480100  0.69519900  0.00000000  1
  Cu  Cu16  1  0.89396300  0.89396300  0.30221000  1
  Cu  Cu17  1  0.10603700  0.10603700  0.69779000  1
