# generated using pymatgen
data_CuNi3C32
_symmetry_space_group_name_H-M   'P 1'
_cell_length_a   8.93684671
_cell_length_b   8.93684671
_cell_length_c   8.93684695
_cell_angle_alpha   58.39906625
_cell_angle_beta   58.39906625
_cell_angle_gamma   58.39907473
_symmetry_Int_Tables_number   1
_chemical_formula_structural   CuNi3C32
_chemical_formula_sum   'Cu1 Ni3 C32'
_cell_volume   486.21129740
_cell_formula_units_Z   1
loop_
 _symmetry_equiv_pos_site_id
 _symmetry_equiv_pos_as_xyz
  1  'x, y, z'
loop_
 _atom_site_type_symbol
 _atom_site_label
 _atom_site_symmetry_multiplicity
 _atom_site_fract_x
 _atom_site_fract_y
 _atom_site_fract_z
 _atom_site_occupancy
  Ni  Ni0  1  0.35125800  0.35125800  0.35125800  1
  Ni  Ni1  1  0.14717900  0.14717900  0.14717900  1
  Ni  Ni2  1  0.64881200  0.64881200  0.64881200  1
  Cu  Cu3  1  0.85433200  0.85433200  0.85433200  1
  C  C4  1  0.99668700  0.99668700  0.99668700  1
  C  C5  1  0.49736100  0.49736100  0.49736100  1
  C  C6  1  0.04243400  0.45869400  0.74997400  1
  C  C7  1  0.45869400  0.74997400  0.04243400  1
  C  C8  1  0.74997400  0.04243400  0.45869400  1
  C  C9  1  0.25211500  0.95903600  0.54005500  1
  C  C10  1  0.54005500  0.25211500  0.95903600  1
  C  C11  1  0.95903600  0.54005500  0.25211500  1
  C  C12  1  0.49514100  0.69900700  0.88216700  1
  C  C13  1  0.69900700  0.88216700  0.49514100  1
  C  C14  1  0.88216700  0.49514100  0.69900700  1
  C  C15  1  0.06230900  0.26666500  0.91647000  1
  C  C16  1  0.01727700  0.61169400  0.79540700  1
  C  C17  1  0.23363700  0.43090300  0.58062700  1
  C  C18  1  0.26666500  0.91647000  0.06230900  1
  C  C19  1  0.43090300  0.58062700  0.23363700  1
  C  C20  1  0.19844900  0.99547400  0.38280800  1
  C  C21  1  0.58062700  0.23363700  0.43090300  1
  C  C22  1  0.08874300  0.94226000  0.73097000  1
  C  C23  1  0.38280800  0.19844900  0.99547400  1
  C  C24  1  0.61169400  0.79540700  0.01727700  1
  C  C25  1  0.91647000  0.06230900  0.26666500  1
  C  C26  1  0.41946400  0.76943300  0.56018600  1
  C  C27  1  0.79540700  0.01727700  0.61169400  1
  C  C28  1  0.56018600  0.41946400  0.76943300  1
  C  C29  1  0.73097000  0.08874300  0.94226000  1
  C  C30  1  0.76943300  0.56018600  0.41946400  1
  C  C31  1  0.99547400  0.38280800  0.19844900  1
  C  C32  1  0.94226000  0.73097000  0.08874300  1
  C  C33  1  0.11790300  0.49940200  0.30566700  1
  C  C34  1  0.30566700  0.11790300  0.49940200  1
  C  C35  1  0.49940200  0.30566700  0.11790300  1
