# generated using pymatgen
data_Cu(Ni2C)2
_symmetry_space_group_name_H-M   'P 1'
_cell_length_a   8.84860200
_cell_length_b   9.97809500
_cell_length_c   12.59119400
_cell_angle_alpha   90.00000000
_cell_angle_beta   90.00000000
_cell_angle_gamma   90.00000000
_symmetry_Int_Tables_number   1
_chemical_formula_structural   Cu(Ni2C)2
_chemical_formula_sum   'Cu12 Ni48 C24'
_cell_volume   1111.70411026
_cell_formula_units_Z   12
loop_
 _symmetry_equiv_pos_site_id
 _symmetry_equiv_pos_as_xyz
  1  'x, y, z'
loop_
 _atom_site_type_symbol
 _atom_site_label
 _atom_site_symmetry_multiplicity
 _atom_site_fract_x
 _atom_site_fract_y
 _atom_site_fract_z
 _atom_site_occupancy
  C  C0  1  0.81504600  0.25000000  0.39360100  1
  C  C1  1  0.31504600  0.25000000  0.10639900  1
  C  C2  1  0.18495400  0.75000000  0.60639900  1
  C  C3  1  0.68495400  0.75000000  0.89360100  1
  Ni  Ni4  1  0.00361300  0.25000000  0.89330300  1
  Ni  Ni5  1  0.50361300  0.25000000  0.60669700  1
  Ni  Ni6  1  0.99638700  0.75000000  0.10669700  1
  Ni  Ni7  1  0.49638700  0.75000000  0.39330300  1
  Ni  Ni8  1  0.81428000  0.25000000  0.91822500  1
  Ni  Ni9  1  0.31428000  0.25000000  0.58177500  1
  Ni  Ni10  1  0.18572000  0.75000000  0.08177500  1
  Ni  Ni11  1  0.68572000  0.75000000  0.41822500  1
  Ni  Ni12  1  0.93411000  0.16584000  0.99877200  1
  Ni  Ni13  1  0.43411000  0.33416000  0.50122800  1
  Ni  Ni14  1  0.06589000  0.66584000  0.00122800  1
  Ni  Ni15  1  0.56589000  0.83416000  0.49877200  1
  Ni  Ni16  1  0.06589000  0.83416000  0.00122800  1
  Ni  Ni17  1  0.56589000  0.66584000  0.49877200  1
  Ni  Ni18  1  0.93411000  0.33416000  0.99877200  1
  Ni  Ni19  1  0.43411000  0.16584000  0.50122800  1
  Ni  Ni20  1  0.00533800  0.07629400  0.66401000  1
  Ni  Ni21  1  0.50533800  0.42370600  0.83599000  1
  Ni  Ni22  1  0.99466200  0.57629400  0.33599000  1
  Ni  Ni23  1  0.49466200  0.92370600  0.16401000  1
  Ni  Ni24  1  0.99466200  0.92370600  0.33599000  1
  Ni  Ni25  1  0.49466200  0.57629400  0.16401000  1
  Ni  Ni26  1  0.00533800  0.42370600  0.66401000  1
  Ni  Ni27  1  0.50533800  0.07629400  0.83599000  1
  Ni  Ni28  1  0.89115200  0.96229200  0.60548200  1
  Ni  Ni29  1  0.39115200  0.53770800  0.89451800  1
  Ni  Ni30  1  0.10884800  0.46229200  0.39451800  1
  Ni  Ni31  1  0.60884800  0.03770800  0.10548200  1
  Ni  Ni32  1  0.10884800  0.03770800  0.39451800  1
  Ni  Ni33  1  0.60884800  0.46229200  0.10548200  1
  Ni  Ni34  1  0.89115200  0.53770800  0.60548200  1
  Ni  Ni35  1  0.39115200  0.96229200  0.89451800  1
  Ni  Ni36  1  0.81803700  0.08382000  0.68696100  1
  Ni  Ni37  1  0.31803700  0.41618000  0.81303900  1
  Ni  Ni38  1  0.18196300  0.58382000  0.31303900  1
  Ni  Ni39  1  0.68196300  0.91618000  0.18696100  1
  Ni  Ni40  1  0.18196300  0.91618000  0.31303900  1
  Ni  Ni41  1  0.68196300  0.58382000  0.18696100  1
  Ni  Ni42  1  0.81803700  0.41618000  0.68696100  1
  Ni  Ni43  1  0.31803700  0.08382000  0.81303900  1
  Ni  Ni44  1  0.92122700  0.95531200  0.73715500  1
  Ni  Ni45  1  0.42122700  0.54468800  0.76284500  1
  Ni  Ni46  1  0.07877300  0.45531200  0.26284500  1
  Ni  Ni47  1  0.57877300  0.04468800  0.23715500  1
  Ni  Ni48  1  0.07877300  0.04468800  0.26284500  1
  Ni  Ni49  1  0.57877300  0.45531200  0.23715500  1
  Ni  Ni50  1  0.92122700  0.54468800  0.73715500  1
  Ni  Ni51  1  0.42122700  0.95531200  0.76284500  1
  Cu  Cu52  1  0.92042700  0.25000000  0.95232600  1
  Cu  Cu53  1  0.42042700  0.25000000  0.54767400  1
  Cu  Cu54  1  0.07957300  0.75000000  0.04767400  1
  Cu  Cu55  1  0.57957300  0.75000000  0.45232600  1
  Cu  Cu56  1  0.90871500  0.01883200  0.67309400  1
  Cu  Cu57  1  0.40871500  0.48116800  0.82690600  1
  Cu  Cu58  1  0.09128500  0.51883200  0.32690600  1
  Cu  Cu59  1  0.59128500  0.98116800  0.17309400  1
  Cu  Cu60  1  0.09128500  0.98116800  0.32690600  1
  Cu  Cu61  1  0.59128500  0.51883200  0.17309400  1
  Cu  Cu62  1  0.90871500  0.48116800  0.67309400  1
  Cu  Cu63  1  0.40871500  0.01883200  0.82690600  1
  C  C64  1  0.87320400  0.25000000  0.21807500  1
  C  C65  1  0.37320400  0.25000000  0.28192500  1
  C  C66  1  0.12679600  0.75000000  0.78192500  1
  C  C67  1  0.62679600  0.75000000  0.71807500  1
  C  C68  1  0.03928300  0.25000000  0.48852500  1
  C  C69  1  0.53928300  0.25000000  0.01147500  1
  C  C70  1  0.96071700  0.75000000  0.51147500  1
  C  C71  1  0.46071700  0.75000000  0.98852500  1
  C  C72  1  0.66713400  0.25000000  0.73615900  1
  C  C73  1  0.16713400  0.25000000  0.76384100  1
  C  C74  1  0.33286600  0.75000000  0.26384100  1
  C  C75  1  0.83286600  0.75000000  0.23615900  1
  C  C76  1  0.69092300  0.05711400  0.43620500  1
  C  C77  1  0.19092300  0.44288600  0.06379500  1
  C  C78  1  0.30907700  0.55711400  0.56379500  1
  C  C79  1  0.80907700  0.94288600  0.93620500  1
  C  C80  1  0.30907700  0.94288600  0.56379500  1
  C  C81  1  0.80907700  0.55711400  0.93620500  1
  C  C82  1  0.69092300  0.44288600  0.43620500  1
  C  C83  1  0.19092300  0.05711400  0.06379500  1
