# generated using pymatgen
data_CuNi3C10
_symmetry_space_group_name_H-M   'P 1'
_cell_length_a   5.97644976
_cell_length_b   5.97644976
_cell_length_c   9.91504846
_cell_angle_alpha   88.03899785
_cell_angle_beta   88.03899785
_cell_angle_gamma   119.24686378
_symmetry_Int_Tables_number   1
_chemical_formula_structural   CuNi3C10
_chemical_formula_sum   'Cu2 Ni6 C20'
_cell_volume   308.29146843
_cell_formula_units_Z   2
loop_
 _symmetry_equiv_pos_site_id
 _symmetry_equiv_pos_as_xyz
  1  'x, y, z'
loop_
 _atom_site_type_symbol
 _atom_site_label
 _atom_site_symmetry_multiplicity
 _atom_site_fract_x
 _atom_site_fract_y
 _atom_site_fract_z
 _atom_site_occupancy
  C  C0  1  0.34306400  0.67505400  0.90380000  1
  C  C1  1  0.00108100  0.00221900  0.98916200  1
  C  C2  1  0.00221900  0.00108100  0.48916200  1
  C  C3  1  0.67505400  0.34306400  0.40380000  1
  Ni  Ni4  1  0.65944600  0.83140200  0.21542200  1
  Ni  Ni5  1  0.17104600  0.33759700  0.21408200  1
  Ni  Ni6  1  0.16937800  0.83155900  0.21331000  1
  Ni  Ni7  1  0.83155900  0.16937800  0.71331000  1
  Ni  Ni8  1  0.83140200  0.65944600  0.71542200  1
  Ni  Ni9  1  0.33759700  0.17104600  0.71408200  1
  Cu  Cu10  1  0.35383400  0.68757100  0.48970600  1
  Cu  Cu11  1  0.68757100  0.35383400  0.98970600  1
  C  C12  1  0.65293300  0.82737500  0.58758800  1
  C  C13  1  0.49744900  0.53448500  0.34693700  1
  C  C14  1  0.34185300  0.67376600  0.11572800  1
  C  C15  1  0.98928200  0.99087200  0.30241200  1
  C  C16  1  0.99087200  0.98928200  0.80241200  1
  C  C17  1  0.16185600  0.31836100  0.59383300  1
  C  C18  1  0.47597900  0.97356500  0.35713900  1
  C  C19  1  0.03999400  0.51433400  0.33392300  1
  C  C20  1  0.80481300  0.14011600  0.09087700  1
  C  C21  1  0.14011600  0.80481300  0.59087700  1
  C  C22  1  0.97356500  0.47598000  0.85713900  1
  C  C23  1  0.51433400  0.03999400  0.83392300  1
  C  C24  1  0.67376600  0.34185300  0.61572800  1
  C  C25  1  0.82737500  0.65293300  0.08758800  1
  C  C26  1  0.53448500  0.49744900  0.84693700  1
  C  C27  1  0.31836100  0.16185600  0.09383300  1
