# generated using pymatgen
data_CuNi3C20
_symmetry_space_group_name_H-M   'P 1'
_cell_length_a   5.25672400
_cell_length_b   9.09541783
_cell_length_c   10.50100071
_cell_angle_alpha   88.51074729
_cell_angle_beta   88.90221212
_cell_angle_gamma   89.80844714
_symmetry_Int_Tables_number   1
_chemical_formula_structural   CuNi3C20
_chemical_formula_sum   'Cu2 Ni6 C40'
_cell_volume   501.81115963
_cell_formula_units_Z   2
loop_
 _symmetry_equiv_pos_site_id
 _symmetry_equiv_pos_as_xyz
  1  'x, y, z'
loop_
 _atom_site_type_symbol
 _atom_site_label
 _atom_site_symmetry_multiplicity
 _atom_site_fract_x
 _atom_site_fract_y
 _atom_site_fract_z
 _atom_site_occupancy
  C  C0  1  0.14631900  0.17484500  0.66843600  1
  C  C1  1  0.18625600  0.16081500  0.16775000  1
  C  C2  1  0.32264000  0.33057800  0.41697300  1
  C  C3  1  0.33684400  0.32564100  0.91702300  1
  C  C4  1  0.64796200  0.67387600  0.66716800  1
  C  C5  1  0.68838400  0.66024100  0.16791000  1
  C  C6  1  0.81915600  0.83252200  0.41787900  1
  C  C7  1  0.83588900  0.82568700  0.91814600  1
  Ni  Ni8  1  0.17741400  0.49821900  0.13251700  1
  Ni  Ni9  1  0.15876500  0.83923700  0.63376800  1
  Ni  Ni10  1  0.33114400  0.66396500  0.38299900  1
  Ni  Ni11  1  0.33160900  0.99882100  0.88384000  1
  Ni  Ni12  1  0.67911600  0.00001600  0.13533700  1
  Ni  Ni13  1  0.82962600  0.49626000  0.88128900  1
  Cu  Cu14  1  0.65397600  0.33893400  0.63054300  1
  Cu  Cu15  1  0.83847400  0.16486100  0.38521900  1
  C  C16  1  0.17378000  0.82951700  0.12632900  1
  C  C17  1  0.15972300  0.50002000  0.62522300  1
  C  C18  1  0.33467200  0.99893000  0.37727800  1
  C  C19  1  0.32788700  0.66691700  0.87515500  1
  C  C20  1  0.67382900  0.32939700  0.12661800  1
  C  C21  1  0.65766800  0.00348700  0.62505800  1
  C  C22  1  0.83655300  0.49575200  0.37620400  1
  C  C23  1  0.82723900  0.16706500  0.87464600  1
  C  C24  1  0.09650100  0.48061700  0.34643700  1
  C  C25  1  0.08904100  0.17941800  0.86072800  1
  C  C26  1  0.17397600  0.78916300  0.84497500  1
  C  C27  1  0.19435800  0.87571300  0.41747300  1
  C  C28  1  0.21444500  0.13467700  0.36291200  1
  C  C29  1  0.21593300  0.53499500  0.91724100  1
  C  C30  1  0.27654300  0.36331700  0.61230500  1
  C  C31  1  0.28987700  0.96500000  0.09644800  1
  C  C32  1  0.30192400  0.62700700  0.59635700  1
  C  C33  1  0.32238700  0.71020600  0.16738800  1
  C  C34  1  0.41365500  0.31437000  0.11161100  1
  C  C35  1  0.40468900  0.01735400  0.66593500  1
  C  C36  1  0.59429300  0.98752600  0.34802700  1
  C  C37  1  0.58942200  0.67863200  0.86029800  1
  C  C38  1  0.67304700  0.28822300  0.84317100  1
  C  C39  1  0.69495100  0.37275300  0.41695100  1
  C  C40  1  0.72265800  0.63275600  0.36225100  1
  C  C41  1  0.71747200  0.03491500  0.91796700  1
  C  C42  1  0.78836200  0.46523400  0.09558500  1
  C  C43  1  0.76694300  0.86564600  0.61060900  1
  C  C44  1  0.80247900  0.12979900  0.59570400  1
  C  C45  1  0.82256500  0.21118200  0.16835600  1
  C  C46  1  0.91364100  0.81517800  0.11199100  1
  C  C47  1  0.90531700  0.51011100  0.66356900  1
