# generated using pymatgen
data_CuNi7C8
_symmetry_space_group_name_H-M   'P 1'
_cell_length_a   3.48212637
_cell_length_b   3.48212637
_cell_length_c   21.50007400
_cell_angle_alpha   90.00000000
_cell_angle_beta   90.00000000
_cell_angle_gamma   120.00000699
_symmetry_Int_Tables_number   1
_chemical_formula_structural   CuNi7C8
_chemical_formula_sum   'Cu1 Ni7 C8'
_cell_volume   225.76655777
_cell_formula_units_Z   1
loop_
 _symmetry_equiv_pos_site_id
 _symmetry_equiv_pos_as_xyz
  1  'x, y, z'
loop_
 _atom_site_type_symbol
 _atom_site_label
 _atom_site_symmetry_multiplicity
 _atom_site_fract_x
 _atom_site_fract_y
 _atom_site_fract_z
 _atom_site_occupancy
  C  C0  1  0.66666700  0.33333300  0.96423400  1
  C  C1  1  0.33333300  0.66666700  0.34707900  1
  C  C2  1  0.33333300  0.66666700  0.09661100  1
  C  C3  1  0.33333300  0.66666700  0.59775600  1
  C  C4  1  0.33333300  0.66666700  0.84993300  1
  C  C5  1  0.66666700  0.33333300  0.22178800  1
  C  C6  1  0.66666700  0.33333300  0.72398500  1
  C  C7  1  0.66666700  0.33333300  0.47229800  1
  Ni  Ni8  1  0.33333300  0.66666700  0.24732600  1
  Ni  Ni9  1  0.33333300  0.66666700  0.75020200  1
  Ni  Ni10  1  0.33333300  0.66666700  0.49830700  1
  Ni  Ni11  1  0.66666700  0.33333300  0.37287200  1
  Ni  Ni12  1  0.66666700  0.33333300  0.12130900  1
  Ni  Ni13  1  0.66666700  0.33333300  0.87569500  1
  Ni  Ni14  1  0.66666700  0.33333300  0.62419800  1
  Cu  Cu15  1  0.33333300  0.66666700  0.99726500  1
