# generated using pymatgen
data_Cu2NiC3
_symmetry_space_group_name_H-M   'P 1'
_cell_length_a   7.54063017
_cell_length_b   7.54063017
_cell_length_c   12.45861285
_cell_angle_alpha   68.88250998
_cell_angle_beta   68.88250998
_cell_angle_gamma   41.68613228
_symmetry_Int_Tables_number   1
_chemical_formula_structural   Cu2NiC3
_chemical_formula_sum   'Cu16 Ni8 C24'
_cell_volume   434.71164933
_cell_formula_units_Z   8
loop_
 _symmetry_equiv_pos_site_id
 _symmetry_equiv_pos_as_xyz
  1  'x, y, z'
loop_
 _atom_site_type_symbol
 _atom_site_label
 _atom_site_symmetry_multiplicity
 _atom_site_fract_x
 _atom_site_fract_y
 _atom_site_fract_z
 _atom_site_occupancy
  C  C0  1  0.96358400  0.81998800  0.42187400  1
  C  C1  1  0.18001200  0.03641600  0.07812600  1
  C  C2  1  0.03641600  0.18001200  0.57812600  1
  C  C3  1  0.81998800  0.96358400  0.92187400  1
  C  C4  1  0.22141100  0.61160800  0.12390100  1
  C  C5  1  0.38839200  0.77858900  0.37609900  1
  C  C6  1  0.77858900  0.38839200  0.87609900  1
  C  C7  1  0.61160800  0.22141100  0.62390100  1
  C  C8  1  0.28947100  0.37555300  0.08287200  1
  C  C9  1  0.62444700  0.71052900  0.41712800  1
  C  C10  1  0.71052900  0.62444700  0.91712800  1
  C  C11  1  0.37555300  0.28947100  0.58287200  1
  C  C12  1  0.05054200  0.52046700  0.19819200  1
  C  C13  1  0.47953300  0.94945800  0.30180800  1
  C  C14  1  0.94945800  0.47953300  0.80180800  1
  C  C15  1  0.52046700  0.05054200  0.69819200  1
  C  C16  1  0.61778500  0.17523800  0.18988600  1
  C  C17  1  0.82476200  0.38221500  0.31011400  1
  C  C18  1  0.38221500  0.82476200  0.81011400  1
  C  C19  1  0.17523800  0.61778500  0.68988600  1
  C  C20  1  0.37584100  0.32728000  0.30011700  1
  C  C21  1  0.67272000  0.62415900  0.19988300  1
  C  C22  1  0.62415900  0.67272000  0.69988300  1
  C  C23  1  0.32728000  0.37584100  0.80011700  1
  Ni  Ni24  1  0.23778800  0.45316600  0.15392000  1
  Ni  Ni25  1  0.54683400  0.76221200  0.34608000  1
  Ni  Ni26  1  0.76221200  0.54683400  0.84608000  1
  Ni  Ni27  1  0.45316600  0.23778800  0.65392000  1
  Ni  Ni28  1  0.43635500  0.23952600  0.23171300  1
  Ni  Ni29  1  0.76047400  0.56364500  0.26828700  1
  Ni  Ni30  1  0.56364500  0.76047400  0.76828700  1
  Ni  Ni31  1  0.23952600  0.43635500  0.73171300  1
  Cu  Cu32  1  0.92900900  0.77735300  0.33245500  1
  Cu  Cu33  1  0.22264700  0.07099100  0.16754500  1
  Cu  Cu34  1  0.07099100  0.22264700  0.66754500  1
  Cu  Cu35  1  0.77735300  0.92900900  0.83245500  1
  Cu  Cu36  1  0.83383700  0.78813400  0.52961900  1
  Cu  Cu37  1  0.21186600  0.16616300  0.97038100  1
  Cu  Cu38  1  0.16616300  0.21186600  0.47038100  1
  Cu  Cu39  1  0.78813400  0.83383700  0.02961900  1
  Cu  Cu40  1  0.24665700  0.62526900  0.42577800  1
  Cu  Cu41  1  0.37473100  0.75334300  0.07422200  1
  Cu  Cu42  1  0.75334300  0.37473100  0.57422200  1
  Cu  Cu43  1  0.62526900  0.24665700  0.92577800  1
  Cu  Cu44  1  0.85461900  0.08185100  0.39918700  1
  Cu  Cu45  1  0.91814900  0.14538100  0.10081300  1
  Cu  Cu46  1  0.14538100  0.91814900  0.60081300  1
  Cu  Cu47  1  0.08185100  0.85461900  0.89918700  1
