# generated using pymatgen
data_Cu56Ni14C3
_symmetry_space_group_name_H-M   'P 1'
_cell_length_a   11.05577028
_cell_length_b   11.05577028
_cell_length_c   10.30886700
_cell_angle_alpha   90.00000000
_cell_angle_beta   90.00000000
_cell_angle_gamma   120.00000167
_symmetry_Int_Tables_number   1
_chemical_formula_structural   Cu56Ni14C3
_chemical_formula_sum   'Cu56 Ni14 C3'
_cell_volume   1091.23823218
_cell_formula_units_Z   1
loop_
 _symmetry_equiv_pos_site_id
 _symmetry_equiv_pos_as_xyz
  1  'x, y, z'
loop_
 _atom_site_type_symbol
 _atom_site_label
 _atom_site_symmetry_multiplicity
 _atom_site_fract_x
 _atom_site_fract_y
 _atom_site_fract_z
 _atom_site_occupancy
  Ni  Ni0  1  0.93742800  0.36038000  0.92831700  1
  Ni  Ni1  1  0.20952600  0.25792600  0.66899900  1
  Ni  Ni2  1  0.42295200  0.06257200  0.92831700  1
  Ni  Ni3  1  0.04840000  0.79047400  0.66899900  1
  Ni  Ni4  1  0.36038000  0.42295200  0.07168300  1
  Ni  Ni5  1  0.66666700  0.33333300  0.55498600  1
  Ni  Ni6  1  0.33333300  0.66666700  0.44501400  1
  Ni  Ni7  1  0.74207400  0.95160000  0.66899900  1
  Ni  Ni8  1  0.63962000  0.57704800  0.92831700  1
  Ni  Ni9  1  0.06257200  0.63962000  0.07168300  1
  Ni  Ni10  1  0.79047400  0.74207400  0.33100100  1
  Ni  Ni11  1  0.95160000  0.20952600  0.33100100  1
  Ni  Ni12  1  0.57704800  0.93742800  0.07168300  1
  Ni  Ni13  1  0.25792600  0.04840000  0.33100100  1
  Cu  Cu14  1  0.59349300  0.69519400  0.73109200  1
  Cu  Cu15  1  0.00000000  0.00000000  0.74430200  1
  Cu  Cu16  1  0.70010800  0.84549100  0.18816900  1
  Cu  Cu17  1  0.41646000  0.27856900  0.54737500  1
  Cu  Cu18  1  0.32165700  0.80840600  0.01592300  1
  Cu  Cu19  1  0.16791100  0.62485300  0.27285000  1
  Cu  Cu20  1  0.48674900  0.67834300  0.01592300  1
  Cu  Cu21  1  0.38490000  0.44756200  0.82956800  1
  Cu  Cu22  1  0.83208900  0.37514700  0.72715000  1
  Cu  Cu23  1  0.61510000  0.55243800  0.17043200  1
  Cu  Cu24  1  0.19159400  0.51325100  0.01592300  1
  Cu  Cu25  1  0.02850400  0.83353800  0.42221200  1
  Cu  Cu26  1  0.72143100  0.13789100  0.54737500  1
  Cu  Cu27  1  0.26211600  0.13085900  0.08388900  1
  Cu  Cu28  1  0.15450900  0.85461700  0.18816900  1
  Cu  Cu29  1  0.88554100  0.37778800  0.43644100  1
  Cu  Cu30  1  0.93733800  0.38490000  0.17043200  1
  Cu  Cu31  1  0.80840600  0.48674900  0.98407700  1
  Cu  Cu32  1  0.19496600  0.02850400  0.57778800  1
  Cu  Cu33  1  0.44756200  0.06266200  0.17043200  1
  Cu  Cu34  1  0.58354000  0.72143100  0.45262500  1
  Cu  Cu35  1  0.16646200  0.19496600  0.42221200  1
  Cu  Cu36  1  0.86914100  0.13125600  0.08388900  1
  Cu  Cu37  1  0.69519400  0.10170100  0.26890800  1
  Cu  Cu38  1  0.73788400  0.86914100  0.91611100  1
  Cu  Cu39  1  0.45694300  0.83208900  0.27285000  1
  Cu  Cu40  1  0.55243800  0.93733800  0.82956800  1
  Cu  Cu41  1  0.11445900  0.62221200  0.56355900  1
  Cu  Cu42  1  0.83353800  0.80503400  0.57778800  1
  Cu  Cu43  1  0.30480600  0.89829900  0.73109200  1
  Cu  Cu44  1  0.49224700  0.11445900  0.43644100  1
  Cu  Cu45  1  0.62221200  0.50775300  0.43644100  1
  Cu  Cu46  1  0.13085900  0.86874400  0.91611100  1
  Cu  Cu47  1  0.97149600  0.16646200  0.57778800  1
  Cu  Cu48  1  0.27856900  0.86210900  0.45262500  1
  Cu  Cu49  1  0.14538300  0.29989200  0.18816900  1
  Cu  Cu50  1  0.62485300  0.45694300  0.72715000  1
  Cu  Cu51  1  0.89829900  0.59349300  0.26890800  1
  Cu  Cu52  1  0.29989200  0.15450900  0.81183100  1
  Cu  Cu53  1  0.51325100  0.32165700  0.98407700  1
  Cu  Cu54  1  0.13125600  0.26211600  0.91611100  1
  Cu  Cu55  1  0.00000000  0.00000000  0.25569800  1
  Cu  Cu56  1  0.06266200  0.61510000  0.82956800  1
  Cu  Cu57  1  0.80503400  0.97149600  0.42221200  1
  Cu  Cu58  1  0.37778800  0.49224700  0.56355900  1
  Cu  Cu59  1  0.67834300  0.19159400  0.98407700  1
  Cu  Cu60  1  0.54305700  0.16791100  0.72715000  1
  Cu  Cu61  1  0.37514700  0.54305700  0.27285000  1
  Cu  Cu62  1  0.84549100  0.14538300  0.81183100  1
  Cu  Cu63  1  0.86210900  0.58354000  0.54737500  1
  Cu  Cu64  1  0.40650700  0.30480600  0.26890800  1
  Cu  Cu65  1  0.85461700  0.70010800  0.81183100  1
  Cu  Cu66  1  0.50775300  0.88554100  0.56355900  1
  Cu  Cu67  1  0.13789100  0.41646000  0.45262500  1
  Cu  Cu68  1  0.10170100  0.40650700  0.73109200  1
  Cu  Cu69  1  0.86874400  0.73788400  0.08388900  1
  C  C70  1  0.00000000  0.00000000  0.00000000  1
  C  C71  1  0.66666700  0.33333300  0.27952600  1
  C  C72  1  0.33333300  0.66666700  0.72047400  1
