# generated using pymatgen
data_Cu3NiC9
_symmetry_space_group_name_H-M   'P 1'
_cell_length_a   7.78626622
_cell_length_b   7.78626622
_cell_length_c   12.94013376
_cell_angle_alpha   87.45739217
_cell_angle_beta   87.45739217
_cell_angle_gamma   118.34749628
_symmetry_Int_Tables_number   1
_chemical_formula_structural   Cu3NiC9
_chemical_formula_sum   'Cu12 Ni4 C36'
_cell_volume   687.84066971
_cell_formula_units_Z   4
loop_
 _symmetry_equiv_pos_site_id
 _symmetry_equiv_pos_as_xyz
  1  'x, y, z'
loop_
 _atom_site_type_symbol
 _atom_site_label
 _atom_site_symmetry_multiplicity
 _atom_site_fract_x
 _atom_site_fract_y
 _atom_site_fract_z
 _atom_site_occupancy
  C  C0  1  0.69528800  0.19276200  0.57234000  1
  C  C1  1  0.80723800  0.30471200  0.92766000  1
  C  C2  1  0.19276200  0.69528800  0.07234000  1
  C  C3  1  0.30471200  0.80723800  0.42766000  1
  Ni  Ni4  1  0.38967100  0.10933800  0.83375200  1
  Ni  Ni5  1  0.10933800  0.38967100  0.33375200  1
  Ni  Ni6  1  0.89066200  0.61032900  0.66624800  1
  Ni  Ni7  1  0.61032900  0.89066200  0.16624800  1
  Cu  Cu8  1  0.61191500  0.87121600  0.83687300  1
  Cu  Cu9  1  0.93027100  0.75375400  0.89671200  1
  Cu  Cu10  1  0.28131400  0.44306800  0.88584100  1
  Cu  Cu11  1  0.55693200  0.71868600  0.61415900  1
  Cu  Cu12  1  0.24624600  0.06972900  0.60328800  1
  Cu  Cu13  1  0.87121600  0.61191500  0.33687300  1
  Cu  Cu14  1  0.12878400  0.38808500  0.66312700  1
  Cu  Cu15  1  0.44306800  0.28131400  0.38584100  1
  Cu  Cu16  1  0.75375400  0.93027100  0.39671200  1
  Cu  Cu17  1  0.06972900  0.24624600  0.10328800  1
  Cu  Cu18  1  0.71868600  0.55693200  0.11415900  1
  Cu  Cu19  1  0.38808500  0.12878400  0.16312700  1
  C  C20  1  0.16023400  0.90632200  0.89801200  1
  C  C21  1  0.40939900  0.68165800  0.88637400  1
  C  C22  1  0.40843800  0.11870500  0.68790700  1
  C  C23  1  0.62034200  0.86354900  0.71018500  1
  C  C24  1  0.60825600  0.07064600  0.86828900  1
  C  C25  1  0.42273700  0.34465300  0.88309200  1
  C  C26  1  0.80410700  0.87132700  0.88219600  1
  C  C27  1  0.68165800  0.40939900  0.38637400  1
  C  C28  1  0.90632200  0.16023400  0.39801200  1
  C  C29  1  0.12867300  0.19589300  0.61780400  1
  C  C30  1  0.65534700  0.57726300  0.61690800  1
  C  C31  1  0.11870500  0.40843800  0.18790700  1
  C  C32  1  0.86354900  0.62034200  0.21018500  1
  C  C33  1  0.92935400  0.39174400  0.63171100  1
  C  C34  1  0.62179200  0.87253400  0.51020500  1
  C  C35  1  0.37820800  0.12746600  0.48979500  1
  C  C36  1  0.07064600  0.60825600  0.36828900  1
  C  C37  1  0.88129500  0.59156200  0.81209300  1
  C  C38  1  0.13645100  0.37965800  0.78981500  1
  C  C39  1  0.87132700  0.80410700  0.38219600  1
  C  C40  1  0.34465300  0.42273700  0.38309200  1
  C  C41  1  0.09367800  0.83976600  0.60198800  1
  C  C42  1  0.31834200  0.59060100  0.61362600  1
  C  C43  1  0.57726300  0.65534700  0.11690800  1
  C  C44  1  0.19589300  0.12867300  0.11780400  1
  C  C45  1  0.39174400  0.92935400  0.13171100  1
  C  C46  1  0.12746600  0.37820800  0.98979500  1
  C  C47  1  0.87253500  0.62179200  0.01020500  1
  C  C48  1  0.59156200  0.88129500  0.31209300  1
  C  C49  1  0.37965800  0.13645100  0.28981500  1
  C  C50  1  0.59060100  0.31834200  0.11362600  1
  C  C51  1  0.83976600  0.09367800  0.10198800  1
