# generated using pymatgen
data_Cu3(NiC4)5
_symmetry_space_group_name_H-M   'P 1'
_cell_length_a   5.89231964
_cell_length_b   5.89231964
_cell_length_c   9.51771911
_cell_angle_alpha   89.05252652
_cell_angle_beta   89.05252652
_cell_angle_gamma   59.82694238
_symmetry_Int_Tables_number   1
_chemical_formula_structural   Cu3(NiC4)5
_chemical_formula_sum   'Cu3 Ni5 C20'
_cell_volume   285.62556811
_cell_formula_units_Z   1
loop_
 _symmetry_equiv_pos_site_id
 _symmetry_equiv_pos_as_xyz
  1  'x, y, z'
loop_
 _atom_site_type_symbol
 _atom_site_label
 _atom_site_symmetry_multiplicity
 _atom_site_fract_x
 _atom_site_fract_y
 _atom_site_fract_z
 _atom_site_occupancy
  C  C0  1  0.66752900  0.66752900  0.10629500  1
  C  C1  1  0.99854100  0.99854100  0.00348700  1
  C  C2  1  0.99884400  0.99884400  0.50450700  1
  C  C3  1  0.33270700  0.33270700  0.60489800  1
  Ni  Ni4  1  0.33575300  0.82998400  0.78968200  1
  Ni  Ni5  1  0.66870900  0.66870900  0.51458100  1
  Ni  Ni6  1  0.82998400  0.33575300  0.78968200  1
  Ni  Ni7  1  0.16782300  0.16782300  0.29209300  1
  Ni  Ni8  1  0.33560600  0.33560600  0.01716500  1
  Cu  Cu9  1  0.82830600  0.82830600  0.78283300  1
  Cu  Cu10  1  0.16807100  0.66040000  0.28505100  1
  Cu  Cu11  1  0.66040000  0.16807100  0.28505100  1
  C  C12  1  0.33156400  0.84594300  0.39718300  1
  C  C13  1  0.52148100  0.52148100  0.66581200  1
  C  C14  1  0.66437300  0.66437300  0.89768100  1
  C  C15  1  0.00141100  0.00141100  0.69029900  1
  C  C16  1  0.00272200  0.00272200  0.18948800  1
  C  C17  1  0.84594300  0.33156400  0.39718300  1
  C  C18  1  0.50907300  0.95960300  0.65939900  1
  C  C19  1  0.95960300  0.50907300  0.65939900  1
  C  C20  1  0.16449100  0.16449100  0.89127500  1
  C  C21  1  0.83605400  0.83605400  0.40143700  1
  C  C22  1  0.04052400  0.47033400  0.16003200  1
  C  C23  1  0.47033400  0.04052400  0.16003200  1
  C  C24  1  0.33208000  0.33208000  0.39773900  1
  C  C25  1  0.17638900  0.67039500  0.89659500  1
  C  C26  1  0.48090600  0.48090600  0.15677500  1
  C  C27  1  0.67039500  0.17638900  0.89659500  1
