# generated using pymatgen
data_Cu(NiC13)2
_symmetry_space_group_name_H-M   'P 1'
_cell_length_a   10.27685661
_cell_length_b   10.27685661
_cell_length_c   10.27685661
_cell_angle_alpha   60.00000000
_cell_angle_beta   60.00000000
_cell_angle_gamma   60.00000000
_symmetry_Int_Tables_number   1
_chemical_formula_structural   Cu(NiC13)2
_chemical_formula_sum   'Cu2 Ni4 C52'
_cell_volume   767.47792632
_cell_formula_units_Z   2
loop_
 _symmetry_equiv_pos_site_id
 _symmetry_equiv_pos_as_xyz
  1  'x, y, z'
loop_
 _atom_site_type_symbol
 _atom_site_label
 _atom_site_symmetry_multiplicity
 _atom_site_fract_x
 _atom_site_fract_y
 _atom_site_fract_z
 _atom_site_occupancy
  C  C0  1  0.55038200  0.94961800  0.55038200  1
  C  C1  1  0.30038200  0.69961800  0.30038200  1
  C  C2  1  0.69961800  0.69961800  0.30038200  1
  C  C3  1  0.94961800  0.94961800  0.55038200  1
  C  C4  1  0.30038200  0.69961800  0.69961800  1
  C  C5  1  0.55038200  0.94961800  0.94961800  1
  C  C6  1  0.55038200  0.55038200  0.94961800  1
  C  C7  1  0.94961800  0.55038200  0.55038200  1
  C  C8  1  0.69961800  0.30038200  0.30038200  1
  C  C9  1  0.30038200  0.30038200  0.69961800  1
  C  C10  1  0.94961800  0.55038200  0.94961800  1
  C  C11  1  0.69961800  0.30038200  0.69961800  1
  Ni  Ni12  1  0.12500000  0.12500000  0.12500000  1
  Ni  Ni13  1  0.12500000  0.12500000  0.62500000  1
  Ni  Ni14  1  0.62500000  0.12500000  0.12500000  1
  Ni  Ni15  1  0.12500000  0.62500000  0.12500000  1
  Cu  Cu16  1  0.75000000  0.75000000  0.75000000  1
  Cu  Cu17  1  0.50000000  0.50000000  0.50000000  1
  C  C18  1  0.30224200  0.89925300  0.89925300  1
  C  C19  1  0.89925300  0.89925300  0.30224200  1
  C  C20  1  0.89925300  0.30224200  0.89925300  1
  C  C21  1  0.35074700  0.35074700  0.35074700  1
  C  C22  1  0.35074700  0.94775800  0.35074700  1
  C  C23  1  0.89925300  0.89925300  0.89925300  1
  C  C24  1  0.35074700  0.35074700  0.94775800  1
  C  C25  1  0.94775800  0.35074700  0.35074700  1
  C  C26  1  0.30250500  0.76988300  0.90400200  1
  C  C27  1  0.68803100  0.68803100  0.68803100  1
  C  C28  1  0.02360900  0.76988300  0.30250500  1
  C  C29  1  0.76988300  0.90400200  0.30250500  1
  C  C30  1  0.93590700  0.68803100  0.68803100  1
  C  C31  1  0.68803100  0.68803100  0.93590700  1
  C  C32  1  0.30250500  0.02360900  0.76988300  1
  C  C33  1  0.30250500  0.90400200  0.02360900  1
  C  C34  1  0.68803100  0.93590700  0.68803100  1
  C  C35  1  0.90400200  0.30250500  0.76988300  1
  C  C36  1  0.48011700  0.22639100  0.34599800  1
  C  C37  1  0.90400200  0.02360900  0.30250500  1
  C  C38  1  0.76988300  0.30250500  0.02360900  1
  C  C39  1  0.22639100  0.34599800  0.48011700  1
  C  C40  1  0.90400200  0.76988300  0.02360900  1
  C  C41  1  0.22639100  0.94749500  0.34599800  1
  C  C42  1  0.02360900  0.30250500  0.90400200  1
  C  C43  1  0.34599800  0.48011700  0.22639100  1
  C  C44  1  0.02360900  0.90400200  0.76988300  1
  C  C45  1  0.48011700  0.94749500  0.22639100  1
  C  C46  1  0.34599800  0.22639100  0.94749500  1
  C  C47  1  0.76988300  0.02360900  0.90400200  1
  C  C48  1  0.34599800  0.94749500  0.48011700  1
  C  C49  1  0.56196900  0.31409300  0.56196900  1
  C  C50  1  0.94749500  0.34599800  0.22639100  1
  C  C51  1  0.94749500  0.22639100  0.48011700  1
  C  C52  1  0.31409300  0.56196900  0.56196900  1
  C  C53  1  0.56196900  0.56196900  0.31409300  1
  C  C54  1  0.48011700  0.34599800  0.94749500  1
  C  C55  1  0.22639100  0.48011700  0.94749500  1
  C  C56  1  0.56196900  0.56196900  0.56196900  1
  C  C57  1  0.94749500  0.48011700  0.34599800  1
