# generated using pymatgen
data_CuNiC5
_symmetry_space_group_name_H-M   'P 1'
_cell_length_a   8.98396396
_cell_length_b   8.98396396
_cell_length_c   8.36298700
_cell_angle_alpha   90.00000000
_cell_angle_beta   90.00000000
_cell_angle_gamma   119.99999968
_symmetry_Int_Tables_number   1
_chemical_formula_structural   CuNiC5
_chemical_formula_sum   'Cu6 Ni6 C30'
_cell_volume   584.55860309
_cell_formula_units_Z   6
loop_
 _symmetry_equiv_pos_site_id
 _symmetry_equiv_pos_as_xyz
  1  'x, y, z'
loop_
 _atom_site_type_symbol
 _atom_site_label
 _atom_site_symmetry_multiplicity
 _atom_site_fract_x
 _atom_site_fract_y
 _atom_site_fract_z
 _atom_site_occupancy
  C  C0  1  0.02705700  0.68448800  0.25713500  1
  C  C1  1  0.31551200  0.34256900  0.25713500  1
  C  C2  1  0.65743100  0.97294300  0.25713500  1
  C  C3  1  0.34256900  0.02705700  0.75713500  1
  C  C4  1  0.68448800  0.65743100  0.75713500  1
  C  C5  1  0.97294300  0.31551200  0.75713500  1
  Ni  Ni6  1  0.02327300  0.67666500  0.87104500  1
  Ni  Ni7  1  0.32333500  0.34660700  0.87104500  1
  Ni  Ni8  1  0.65339300  0.97672700  0.87104500  1
  Ni  Ni9  1  0.34660700  0.02327300  0.37104500  1
  Ni  Ni10  1  0.67666500  0.65339300  0.37104500  1
  Ni  Ni11  1  0.97672700  0.32333500  0.37104500  1
  Cu  Cu12  1  0.33333300  0.66666700  0.99604200  1
  Cu  Cu13  1  0.33333300  0.66666700  0.54760900  1
  Cu  Cu14  1  0.00000000  0.00000000  0.94674600  1
  Cu  Cu15  1  0.00000000  0.00000000  0.44674600  1
  Cu  Cu16  1  0.66666700  0.33333300  0.49604200  1
  Cu  Cu17  1  0.66666700  0.33333300  0.04760900  1
  C  C18  1  0.07931500  0.86405300  0.78167400  1
  C  C19  1  0.11572000  0.73166700  0.04798600  1
  C  C20  1  0.10958900  0.57223700  0.78426600  1
  C  C21  1  0.24441000  0.81185800  0.38849000  1
  C  C22  1  0.18814200  0.43255200  0.38849000  1
  C  C23  1  0.13594700  0.21526200  0.78167400  1
  C  C24  1  0.46264700  0.89041100  0.78426600  1
  C  C25  1  0.26833300  0.38405200  0.04798600  1
  C  C26  1  0.61594800  0.88428000  0.04798600  1
  C  C27  1  0.21526200  0.07931500  0.28167400  1
  C  C28  1  0.42776300  0.53735300  0.78426600  1
  C  C29  1  0.56744800  0.75559000  0.38849000  1
  C  C30  1  0.43255200  0.24441000  0.88849000  1
  C  C31  1  0.57223700  0.46264700  0.28426600  1
  C  C32  1  0.78473800  0.92068500  0.78167400  1
  C  C33  1  0.38405200  0.11572000  0.54798600  1
  C  C34  1  0.73166700  0.61594800  0.54798600  1
  C  C35  1  0.53735300  0.10958900  0.28426600  1
  C  C36  1  0.86405300  0.78473800  0.28167400  1
  C  C37  1  0.81185800  0.56744800  0.88849000  1
  C  C38  1  0.75559000  0.18814200  0.88849000  1
  C  C39  1  0.89041100  0.42776300  0.28426600  1
  C  C40  1  0.88428000  0.26833300  0.54798600  1
  C  C41  1  0.92068500  0.13594700  0.28167400  1
