# generated using pymatgen
data_Cu19(Ni2C3)2
_symmetry_space_group_name_H-M   'P 1'
_cell_length_a   9.90870300
_cell_length_b   10.05612900
_cell_length_c   20.39071179
_cell_angle_alpha   78.68557028
_cell_angle_beta   90.00000000
_cell_angle_gamma   90.00000000
_symmetry_Int_Tables_number   1
_chemical_formula_structural   Cu19(Ni2C3)2
_chemical_formula_sum   'Cu76 Ni16 C24'
_cell_volume   1992.30830136
_cell_formula_units_Z   4
loop_
 _symmetry_equiv_pos_site_id
 _symmetry_equiv_pos_as_xyz
  1  'x, y, z'
loop_
 _atom_site_type_symbol
 _atom_site_label
 _atom_site_symmetry_multiplicity
 _atom_site_fract_x
 _atom_site_fract_y
 _atom_site_fract_z
 _atom_site_occupancy
  C  C0  1  0.96106500  0.38620700  0.45181000  1
  C  C1  1  0.03893500  0.38620700  0.95181000  1
  C  C2  1  0.53898000  0.61389500  0.54810900  1
  C  C3  1  0.46102000  0.61389500  0.04810900  1
  C  C4  1  0.78201300  0.05564200  0.21875000  1
  C  C5  1  0.21798700  0.05564200  0.71875000  1
  C  C6  1  0.71789200  0.94448100  0.78112100  1
  C  C7  1  0.28210800  0.94448100  0.28112100  1
  C  C8  1  0.51735500  0.09570000  0.05972300  1
  C  C9  1  0.48264500  0.09570000  0.55972300  1
  C  C10  1  0.98265000  0.90430700  0.94033900  1
  C  C11  1  0.01735000  0.90430700  0.44033900  1
  C  C12  1  0.65881700  0.73900100  0.37896000  1
  C  C13  1  0.34118300  0.73900100  0.87896000  1
  C  C14  1  0.84121300  0.26101500  0.62094700  1
  C  C15  1  0.15878700  0.26101500  0.12094700  1
  C  C16  1  0.27631900  0.41979800  0.77490500  1
  C  C17  1  0.72368100  0.41979800  0.27490500  1
  C  C18  1  0.22377300  0.58018600  0.22507000  1
  C  C19  1  0.77622700  0.58018600  0.72507000  1
  C  C20  1  0.68889500  0.21705400  0.89624100  1
  C  C21  1  0.31110500  0.21705400  0.39624100  1
  C  C22  1  0.81120000  0.78289400  0.10376900  1
  C  C23  1  0.18880000  0.78289400  0.60376900  1
  Ni  Ni24  1  0.86318800  0.13705900  0.05020400  1
  Ni  Ni25  1  0.13681200  0.13705900  0.55020400  1
  Ni  Ni26  1  0.63686300  0.86294500  0.94975200  1
  Ni  Ni27  1  0.36313700  0.86294500  0.44975200  1
  Ni  Ni28  1  0.55203500  0.73287300  0.22018900  1
  Ni  Ni29  1  0.44796500  0.73287300  0.72018900  1
  Ni  Ni30  1  0.94785300  0.26734800  0.77972800  1
  Ni  Ni31  1  0.05214700  0.26734800  0.27972800  1
  Ni  Ni32  1  0.94825000  0.72004900  0.27043700  1
  Ni  Ni33  1  0.05175000  0.72004900  0.77043700  1
  Ni  Ni34  1  0.55203100  0.28011700  0.72944100  1
  Ni  Ni35  1  0.44796900  0.28011700  0.22944100  1
  Ni  Ni36  1  0.38104900  0.36228600  0.94129900  1
  Ni  Ni37  1  0.61895100  0.36228600  0.44129900  1
  Ni  Ni38  1  0.11899200  0.63763800  0.05870200  1
  Ni  Ni39  1  0.88100800  0.63763800  0.55870200  1
  Cu  Cu40  1  0.59399000  0.73509900  0.14944600  1
  Cu  Cu41  1  0.40601000  0.73509900  0.64944600  1
  Cu  Cu42  1  0.90603000  0.26504200  0.85051200  1
  Cu  Cu43  1  0.09397000  0.26504200  0.35051200  1
  Cu  Cu44  1  0.73124400  0.49416700  0.85765000  1
  Cu  Cu45  1  0.26875600  0.49416700  0.35765000  1
  Cu  Cu46  1  0.76871800  0.50596500  0.14238800  1
  Cu  Cu47  1  0.23128200  0.50596500  0.64238800  1
  Cu  Cu48  1  0.01887400  0.74666600  0.06550800  1
  Cu  Cu49  1  0.98112600  0.74666600  0.56550800  1
  Cu  Cu50  1  0.48122200  0.25330900  0.93454300  1
  Cu  Cu51  1  0.51877800  0.25330900  0.43454300  1
  Cu  Cu52  1  0.58719900  0.85942200  0.24202800  1
  Cu  Cu53  1  0.41280100  0.85942200  0.74202800  1
  Cu  Cu54  1  0.91285600  0.14059600  0.75791500  1
  Cu  Cu55  1  0.08714400  0.14059600  0.25791500  1
  Cu  Cu56  1  0.78090600  0.01039700  0.07643600  1
  Cu  Cu57  1  0.21909400  0.01039700  0.57643600  1
  Cu  Cu58  1  0.71919900  0.98960100  0.92358300  1
  Cu  Cu59  1  0.28080100  0.98960100  0.42358300  1
  Cu  Cu60  1  0.98741300  0.10616500  0.01584400  1
  Cu  Cu61  1  0.01258700  0.10616500  0.51584400  1
  Cu  Cu62  1  0.51258900  0.89391700  0.98415000  1
  Cu  Cu63  1  0.48741100  0.89391700  0.48415000  1
  Cu  Cu64  1  0.10539400  0.73175800  0.26297900  1
  Cu  Cu65  1  0.89460600  0.73175800  0.76297900  1
  Cu  Cu66  1  0.39468300  0.26828900  0.73689100  1
  Cu  Cu67  1  0.60531700  0.26828900  0.23689100  1
  Cu  Cu68  1  0.77326200  0.23111100  0.00154300  1
  Cu  Cu69  1  0.22673800  0.23111100  0.50154300  1
  Cu  Cu70  1  0.72671500  0.76888500  0.99846600  1
  Cu  Cu71  1  0.27328500  0.76888500  0.49846600  1
  Cu  Cu72  1  0.89499500  0.20208600  0.10733400  1
  Cu  Cu73  1  0.10500500  0.20208600  0.60733400  1
  Cu  Cu74  1  0.60505400  0.79806100  0.89266900  1
  Cu  Cu75  1  0.39494600  0.79806100  0.39266900  1
  Cu  Cu76  1  0.89099200  0.80311300  0.20450000  1
  Cu  Cu77  1  0.10900800  0.80311300  0.70450000  1
  Cu  Cu78  1  0.60887700  0.19673800  0.79556900  1
  Cu  Cu79  1  0.39112300  0.19673800  0.29556900  1
  Cu  Cu80  1  0.30774100  0.31875200  0.00543300  1
  Cu  Cu81  1  0.69225900  0.31875200  0.50543300  1
  Cu  Cu82  1  0.19225900  0.68115800  0.99461000  1
  Cu  Cu83  1  0.80774100  0.68115800  0.49461000  1
  Cu  Cu84  1  0.69257200  0.04126300  0.38403400  1
  Cu  Cu85  1  0.30742800  0.04126300  0.88403400  1
  Cu  Cu86  1  0.80794100  0.95904300  0.61674500  1
  Cu  Cu87  1  0.19205900  0.95904300  0.11674500  1
  Cu  Cu88  1  0.30900100  0.95561500  0.13796300  1
  Cu  Cu89  1  0.69099900  0.95561500  0.63796300  1
  Cu  Cu90  1  0.19099400  0.04428300  0.86191400  1
  Cu  Cu91  1  0.80900600  0.04428300  0.36191400  1
  Cu  Cu92  1  0.40246600  0.71519900  0.22506400  1
  Cu  Cu93  1  0.59753400  0.71519900  0.72506400  1
  Cu  Cu94  1  0.09742000  0.28527500  0.77474100  1
  Cu  Cu95  1  0.90258000  0.28527500  0.27474100  1
  Cu  Cu96  1  0.41419700  0.20238700  0.17508400  1
  Cu  Cu97  1  0.58580300  0.20238700  0.67508400  1
  Cu  Cu98  1  0.08588300  0.79754400  0.82490800  1
  Cu  Cu99  1  0.91411700  0.79754400  0.32490800  1
  Cu  Cu100  1  0.55073100  0.49385200  0.43718100  1
  Cu  Cu101  1  0.44926900  0.49385200  0.93718100  1
  Cu  Cu102  1  0.94915500  0.50624200  0.56276900  1
  Cu  Cu103  1  0.05084500  0.50624200  0.06276900  1
  Cu  Cu104  1  0.61776400  0.61610700  0.26679400  1
  Cu  Cu105  1  0.38223600  0.61610700  0.76679400  1
  Cu  Cu106  1  0.88174700  0.38390400  0.73314800  1
  Cu  Cu107  1  0.11825300  0.38390400  0.23314800  1
  Cu  Cu108  1  0.69445900  0.45023500  0.10689200  1
  Cu  Cu109  1  0.30554100  0.45023500  0.60689200  1
  Cu  Cu110  1  0.80587900  0.55026400  0.89326500  1
  Cu  Cu111  1  0.19412100  0.55026400  0.39326500  1
  Cu  Cu112  1  0.72347600  0.37227300  0.38608900  1
  Cu  Cu113  1  0.27652400  0.37227300  0.88608900  1
  Cu  Cu114  1  0.77646600  0.62789500  0.61385900  1
  Cu  Cu115  1  0.22353400  0.62789500  0.11385900  1
