# generated using pymatgen
data_CuNiC10
_symmetry_space_group_name_H-M   'P 1'
_cell_length_a   8.68042178
_cell_length_b   8.68042178
_cell_length_c   8.68042139
_cell_angle_alpha   60.12512861
_cell_angle_beta   60.12512861
_cell_angle_gamma   60.12512830
_symmetry_Int_Tables_number   1
_chemical_formula_structural   CuNiC10
_chemical_formula_sum   'Cu3 Ni3 C30'
_cell_volume   463.80650181
_cell_formula_units_Z   3
loop_
 _symmetry_equiv_pos_site_id
 _symmetry_equiv_pos_as_xyz
  1  'x, y, z'
loop_
 _atom_site_type_symbol
 _atom_site_label
 _atom_site_symmetry_multiplicity
 _atom_site_fract_x
 _atom_site_fract_y
 _atom_site_fract_z
 _atom_site_occupancy
  Ni  Ni0  1  0.64628700  0.64628700  0.64628700  1
  Ni  Ni1  1  0.85539600  0.85539600  0.85539600  1
  Ni  Ni2  1  0.35259800  0.35259800  0.35259800  1
  Cu  Cu3  1  0.00299900  0.00299900  0.00299900  1
  Cu  Cu4  1  0.14578600  0.14578600  0.14578600  1
  Cu  Cu5  1  0.50078200  0.50078200  0.50078200  1
  C  C6  1  0.54764600  0.95219700  0.24807700  1
  C  C7  1  0.24807700  0.54764600  0.95219700  1
  C  C8  1  0.95219700  0.24807700  0.54764600  1
  C  C9  1  0.04395700  0.74500600  0.45938900  1
  C  C10  1  0.74500600  0.45938900  0.04395700  1
  C  C11  1  0.45938900  0.04395700  0.74500600  1
  C  C12  1  0.30563200  0.49871900  0.12145300  1
  C  C13  1  0.12145300  0.30563200  0.49871900  1
  C  C14  1  0.49871900  0.12145300  0.30563200  1
  C  C15  1  0.74279600  0.93899300  0.08679400  1
  C  C16  1  0.39662100  0.97796000  0.19234900  1
  C  C17  1  0.57336200  0.76096500  0.41442000  1
  C  C18  1  0.08679400  0.74279600  0.93899300  1
  C  C19  1  0.41442000  0.57336200  0.76096500  1
  C  C20  1  0.99858200  0.80805700  0.62190100  1
  C  C21  1  0.76096500  0.41442000  0.57336200  1
  C  C22  1  0.05041900  0.90143600  0.26935300  1
  C  C23  1  0.80805700  0.62190100  0.99858200  1
  C  C24  1  0.19234900  0.39662100  0.97796000  1
  C  C25  1  0.93899300  0.08679400  0.74279600  1
  C  C26  1  0.23603400  0.58019600  0.44905200  1
  C  C27  1  0.97796000  0.19234900  0.39662100  1
  C  C28  1  0.58019600  0.44905200  0.23603400  1
  C  C29  1  0.90143600  0.26935300  0.05041900  1
  C  C30  1  0.44905200  0.23603400  0.58019600  1
  C  C31  1  0.62190100  0.99858200  0.80805700  1
  C  C32  1  0.26935300  0.05041900  0.90143600  1
  C  C33  1  0.51652200  0.88625400  0.67199900  1
  C  C34  1  0.88625400  0.67199900  0.51652200  1
  C  C35  1  0.67199900  0.51652200  0.88625400  1
