# generated using pymatgen
data_Cu2NiC8
_symmetry_space_group_name_H-M   'P 1'
_cell_length_a   7.72970617
_cell_length_b   7.72970617
_cell_length_c   5.95101072
_cell_angle_alpha   77.09716685
_cell_angle_beta   77.09716685
_cell_angle_gamma   69.20217384
_symmetry_Int_Tables_number   1
_chemical_formula_structural   Cu2NiC8
_chemical_formula_sum   'Cu6 Ni3 C24'
_cell_volume   319.92959957
_cell_formula_units_Z   3
loop_
 _symmetry_equiv_pos_site_id
 _symmetry_equiv_pos_as_xyz
  1  'x, y, z'
loop_
 _atom_site_type_symbol
 _atom_site_label
 _atom_site_symmetry_multiplicity
 _atom_site_fract_x
 _atom_site_fract_y
 _atom_site_fract_z
 _atom_site_occupancy
  C  C0  1  0.16568800  0.49519600  0.82776200  1
  C  C1  1  0.49519600  0.16568800  0.82776200  1
  C  C2  1  0.83431200  0.50480400  0.17223800  1
  C  C3  1  0.50480400  0.83431200  0.17223800  1
  C  C4  1  0.82981300  0.17018700  0.50000000  1
  C  C5  1  0.17018700  0.82981300  0.50000000  1
  Ni  Ni6  1  0.83668400  0.16331600  0.00000000  1
  Ni  Ni7  1  0.50000000  0.50000000  0.00000000  1
  Ni  Ni8  1  0.16331600  0.83668400  0.00000000  1
  Cu  Cu9  1  0.16822900  0.49829000  0.33634600  1
  Cu  Cu10  1  0.83286300  0.83286300  0.34193300  1
  Cu  Cu11  1  0.49829000  0.16822900  0.33634600  1
  Cu  Cu12  1  0.83177100  0.50171000  0.66365400  1
  Cu  Cu13  1  0.50171000  0.83177100  0.66365400  1
  Cu  Cu14  1  0.16713700  0.16713700  0.65806700  1
  C  C15  1  0.99242500  0.99242500  0.23658300  1
  C  C16  1  0.99665900  0.65423800  0.56141500  1
  C  C17  1  0.65423800  0.99665900  0.56141500  1
  C  C18  1  0.00757500  0.00757500  0.76341700  1
  C  C19  1  0.01239300  0.67242400  0.10943200  1
  C  C20  1  0.67242400  0.01239300  0.10943200  1
  C  C21  1  0.00334100  0.34576200  0.43858500  1
  C  C22  1  0.67697200  0.67697200  0.43874700  1
  C  C23  1  0.34576200  0.00334100  0.43858500  1
  C  C24  1  0.98760700  0.32757600  0.89056800  1
  C  C25  1  0.65373700  0.65373700  0.91174800  1
  C  C26  1  0.32757600  0.98760700  0.89056800  1
  C  C27  1  0.66718100  0.32313700  0.22735100  1
  C  C28  1  0.32313700  0.66718100  0.22735100  1
  C  C29  1  0.32302800  0.32302800  0.56125300  1
  C  C30  1  0.67686300  0.33281900  0.77264900  1
  C  C31  1  0.33281900  0.67686300  0.77264900  1
  C  C32  1  0.34626300  0.34626300  0.08825200  1
