# generated using pymatgen
data_CuNiC5
_symmetry_space_group_name_H-M   'P 1'
_cell_length_a   9.47673580
_cell_length_b   9.47673580
_cell_length_c   8.84384402
_cell_angle_alpha   72.41213544
_cell_angle_beta   72.41213544
_cell_angle_gamma   114.32638321
_symmetry_Int_Tables_number   1
_chemical_formula_structural   CuNiC5
_chemical_formula_sum   'Cu8 Ni8 C40'
_cell_volume   600.94836129
_cell_formula_units_Z   8
loop_
 _symmetry_equiv_pos_site_id
 _symmetry_equiv_pos_as_xyz
  1  'x, y, z'
loop_
 _atom_site_type_symbol
 _atom_site_label
 _atom_site_symmetry_multiplicity
 _atom_site_fract_x
 _atom_site_fract_y
 _atom_site_fract_z
 _atom_site_occupancy
  C  C0  1  0.87485200  0.21654400  0.34785900  1
  C  C1  1  0.40303100  0.78996100  0.30935500  1
  C  C2  1  0.21654400  0.87485200  0.84785900  1
  C  C3  1  0.78996100  0.40303100  0.80935500  1
  C  C4  1  0.36341000  0.58525000  0.03684500  1
  C  C5  1  0.58525000  0.36341000  0.53684500  1
  C  C6  1  0.13598300  0.85733700  0.50898300  1
  C  C7  1  0.85733700  0.13598300  0.00898300  1
  Ni  Ni8  1  0.16190700  0.14952000  0.16051000  1
  Ni  Ni9  1  0.04256600  0.58139400  0.31259600  1
  Ni  Ni10  1  0.14952000  0.16190700  0.66051000  1
  Ni  Ni11  1  0.56671900  0.18455600  0.25339400  1
  Ni  Ni12  1  0.58139400  0.04256600  0.81259600  1
  Ni  Ni13  1  0.18455600  0.56671900  0.75339400  1
  Ni  Ni14  1  0.64722400  0.69329500  0.18648400  1
  Ni  Ni15  1  0.69329500  0.64722400  0.68648400  1
  Cu  Cu16  1  0.48850000  0.33137000  0.09209600  1
  Cu  Cu17  1  0.21632400  0.35119800  0.39886600  1
  Cu  Cu18  1  0.33137000  0.48850000  0.59209600  1
  Cu  Cu19  1  0.35119800  0.21632400  0.89886600  1
  Cu  Cu20  1  0.91369900  0.68011600  0.18924500  1
  Cu  Cu21  1  0.86188700  0.87547700  0.41774300  1
  Cu  Cu22  1  0.68011600  0.91369900  0.68924500  1
  Cu  Cu23  1  0.87547700  0.86188700  0.91774300  1
  C  C24  1  0.00468600  0.15816900  0.16075600  1
  C  C25  1  0.24427700  0.10783700  0.00867500  1
  C  C26  1  0.08011300  0.98295500  0.34639200  1
  C  C27  1  0.39877600  0.99991000  0.32895100  1
  C  C28  1  0.31216600  0.31929500  0.13377500  1
  C  C29  1  0.15816900  0.00468600  0.66075600  1
  C  C30  1  0.10783700  0.24427700  0.50867500  1
  C  C31  1  0.03565400  0.70561700  0.14606800  1
  C  C32  1  0.98295500  0.08011300  0.84639200  1
  C  C33  1  0.13123300  0.49414400  0.23380500  1
  C  C34  1  0.59799900  0.32444200  0.07215400  1
  C  C35  1  0.73385900  0.17703500  0.19753100  1
  C  C36  1  0.55239000  0.24839300  0.39131000  1
  C  C37  1  0.99991000  0.39877600  0.82895100  1
  C  C38  1  0.14974800  0.69429100  0.37673000  1
  C  C39  1  0.31929500  0.31216600  0.63377500  1
  C  C40  1  0.45872000  0.58058100  0.21471800  1
  C  C41  1  0.70561700  0.03565400  0.64606800  1
  C  C42  1  0.49414400  0.13123300  0.73380500  1
  C  C43  1  0.32444200  0.59799900  0.57215400  1
  C  C44  1  0.79754300  0.73223200  0.00904600  1
  C  C45  1  0.17703500  0.73385900  0.69753100  1
  C  C46  1  0.67297800  0.59297400  0.33856600  1
  C  C47  1  0.24839300  0.55239000  0.89131000  1
  C  C48  1  0.69429100  0.14974800  0.87673000  1
  C  C49  1  0.85078800  0.43094600  0.45968200  1
  C  C50  1  0.58058100  0.45872000  0.71471800  1
  C  C51  1  0.67435400  0.86996600  0.17497200  1
  C  C52  1  0.73223200  0.79754300  0.50904600  1
  C  C53  1  0.59297400  0.67297800  0.83856600  1
  C  C54  1  0.43094600  0.85078800  0.95968200  1
  C  C55  1  0.86996600  0.67435400  0.67497200  1
