# generated using pymatgen
data_Cu3NiC10
_symmetry_space_group_name_H-M   'P 1'
_cell_length_a   9.16438100
_cell_length_b   9.96817800
_cell_length_c   20.99460700
_cell_angle_alpha   90.00000000
_cell_angle_beta   90.00000000
_cell_angle_gamma   90.00000000
_symmetry_Int_Tables_number   1
_chemical_formula_structural   Cu3NiC10
_chemical_formula_sum   'Cu24 Ni8 C80'
_cell_volume   1917.90314011
_cell_formula_units_Z   8
loop_
 _symmetry_equiv_pos_site_id
 _symmetry_equiv_pos_as_xyz
  1  'x, y, z'
loop_
 _atom_site_type_symbol
 _atom_site_label
 _atom_site_symmetry_multiplicity
 _atom_site_fract_x
 _atom_site_fract_y
 _atom_site_fract_z
 _atom_site_occupancy
  Ni  Ni0  1  0.77896000  0.18367600  0.24830000  1
  Ni  Ni1  1  0.22104000  0.68367700  0.75170000  1
  Ni  Ni2  1  0.72104000  0.68367700  0.74830000  1
  Ni  Ni3  1  0.27896000  0.18367600  0.25170000  1
  Ni  Ni4  1  0.92217200  0.66945700  0.26719400  1
  Ni  Ni5  1  0.07782800  0.16945700  0.73280600  1
  Ni  Ni6  1  0.57782800  0.16945700  0.76719400  1
  Ni  Ni7  1  0.42217200  0.66945700  0.23280600  1
  Cu  Cu8  1  0.74475100  0.67501200  0.00005500  1
  Cu  Cu9  1  0.25524900  0.17501200  0.99994500  1
  Cu  Cu10  1  0.75524900  0.17501200  0.50005500  1
  Cu  Cu11  1  0.24475100  0.67501200  0.49994500  1
  Cu  Cu12  1  0.75491500  0.17543700  0.00441400  1
  Cu  Cu13  1  0.24508500  0.67543700  0.99558600  1
  Cu  Cu14  1  0.74508500  0.67543700  0.50441400  1
  Cu  Cu15  1  0.25491500  0.17543700  0.49558600  1
  Cu  Cu16  1  0.62160200  0.92839400  0.89389500  1
  Cu  Cu17  1  0.37839800  0.42839400  0.10610500  1
  Cu  Cu18  1  0.87839800  0.42839400  0.39389500  1
  Cu  Cu19  1  0.12160200  0.92839400  0.60610500  1
  Cu  Cu20  1  0.12097500  0.92470900  0.88848200  1
  Cu  Cu21  1  0.87902500  0.42470900  0.11151800  1
  Cu  Cu22  1  0.37902500  0.42470900  0.38848200  1
  Cu  Cu23  1  0.62097500  0.92470900  0.61151800  1
  Cu  Cu24  1  0.75102500  0.41669400  0.87640900  1
  Cu  Cu25  1  0.24897500  0.91669400  0.12359100  1
  Cu  Cu26  1  0.74897500  0.91669400  0.37640900  1
  Cu  Cu27  1  0.25102500  0.41669400  0.62359100  1
  Cu  Cu28  1  0.72985000  0.92945900  0.12820800  1
  Cu  Cu29  1  0.27015000  0.42945900  0.87179200  1
  Cu  Cu30  1  0.77015000  0.42945900  0.62820800  1
  Cu  Cu31  1  0.22985000  0.92945900  0.37179200  1
  C  C32  1  0.81639200  0.92001000  0.89292500  1
  C  C33  1  0.18360800  0.42001000  0.10707500  1
  C  C34  1  0.68360800  0.42001000  0.39292500  1
  C  C35  1  0.31639200  0.92001000  0.60707500  1
  C  C36  1  0.58898900  0.05430400  0.95945400  1
  C  C37  1  0.41101100  0.55430400  0.04054600  1
  C  C38  1  0.91101100  0.55430400  0.45945400  1
  C  C39  1  0.08898900  0.05430400  0.54054600  1
  C  C40  1  0.58313400  0.77645200  0.94837600  1
  C  C41  1  0.41686600  0.27645200  0.05162400  1
  C  C42  1  0.91686600  0.27645200  0.44837600  1
  C  C43  1  0.08313400  0.77645200  0.55162400  1
  C  C44  1  0.07941400  0.79196800  0.95116500  1
  C  C45  1  0.92058600  0.29196800  0.04883500  1
  C  C46  1  0.42058600  0.29196800  0.45116500  1
  C  C47  1  0.57941400  0.79196800  0.54883500  1
  C  C48  1  0.31602700  0.91990800  0.88868500  1
  C  C49  1  0.68397300  0.41990800  0.11131500  1
  C  C50  1  0.18397300  0.41990800  0.38868500  1
  C  C51  1  0.81602700  0.91990800  0.61131500  1
  C  C52  1  0.08537700  0.07272400  0.94132500  1
  C  C53  1  0.91462300  0.57272400  0.05867500  1
  C  C54  1  0.41462300  0.57272400  0.44132500  1
  C  C55  1  0.58537700  0.07272400  0.55867500  1
  C  C56  1  0.82834800  0.00102000  0.05702700  1
  C  C57  1  0.17165200  0.50102000  0.94297300  1
  C  C58  1  0.67165200  0.50102000  0.55702700  1
  C  C59  1  0.32834800  0.00102000  0.44297300  1
  C  C60  1  0.67856400  0.76565100  0.08923200  1
  C  C61  1  0.32143600  0.26565100  0.91076800  1
  C  C62  1  0.82143600  0.26565100  0.58923200  1
  C  C63  1  0.17856400  0.76565100  0.41076800  1
  C  C64  1  0.81028300  0.58226700  0.91384100  1
  C  C65  1  0.18971700  0.08226700  0.08615900  1
  C  C66  1  0.68971700  0.08226700  0.41384100  1
  C  C67  1  0.31028300  0.58226700  0.58615900  1
  C  C68  1  0.67885500  0.34480600  0.95497800  1
  C  C69  1  0.32114500  0.84480600  0.04502200  1
  C  C70  1  0.82114500  0.84480600  0.45497800  1
  C  C71  1  0.17885500  0.34480600  0.54502200  1
  C  C72  1  0.44297400  0.51170500  0.87585500  1
  C  C73  1  0.55702600  0.01170500  0.12414500  1
  C  C74  1  0.05702600  0.01170500  0.37585500  1
  C  C75  1  0.94297400  0.51170500  0.62414500  1
  C  C76  1  0.07253900  0.84397100  0.12937100  1
  C  C77  1  0.92746100  0.34397100  0.87062900  1
  C  C78  1  0.42746100  0.34397100  0.62937100  1
  C  C79  1  0.57253900  0.84397100  0.37062900  1
  C  C80  1  0.83894800  0.17911600  0.18294800  1
  C  C81  1  0.16105200  0.67911600  0.81705200  1
  C  C82  1  0.66105200  0.67911600  0.68294800  1
  C  C83  1  0.33894800  0.17911600  0.31705200  1
  C  C84  1  0.88733400  0.23689000  0.29561900  1
  C  C85  1  0.11266600  0.73689000  0.70438100  1
  C  C86  1  0.61266600  0.73689000  0.79561900  1
  C  C87  1  0.38733400  0.23689000  0.20438100  1
  C  C88  1  0.72681500  0.04806600  0.26624800  1
  C  C89  1  0.27318500  0.54806600  0.73375200  1
  C  C90  1  0.77318500  0.54806600  0.76624800  1
  C  C91  1  0.22681500  0.04806600  0.23375200  1
  C  C92  1  0.66215300  0.28799100  0.25503600  1
  C  C93  1  0.33784700  0.78799100  0.74496400  1
  C  C94  1  0.83784700  0.78799100  0.75503600  1
  C  C95  1  0.16215300  0.28799100  0.24496400  1
  C  C96  1  0.84775600  0.65218200  0.33044100  1
  C  C97  1  0.15224400  0.15218200  0.66955900  1
  C  C98  1  0.65224400  0.15218200  0.83044100  1
  C  C99  1  0.34775600  0.65218200  0.16955900  1
  C  C100  1  0.03422100  0.56204000  0.25816800  1
  C  C101  1  0.96577900  0.06204000  0.74183200  1
  C  C102  1  0.46577900  0.06204000  0.75816800  1
  C  C103  1  0.53422100  0.56204000  0.24183200  1
  C  C104  1  0.98179800  0.80515900  0.26280500  1
  C  C105  1  0.01820200  0.30515900  0.73719500  1
  C  C106  1  0.51820200  0.30515900  0.76280500  1
  C  C107  1  0.48179800  0.80515900  0.23719500  1
  C  C108  1  0.81735800  0.64163100  0.21385900  1
  C  C109  1  0.18264200  0.14163100  0.78614100  1
  C  C110  1  0.68264200  0.14163100  0.71385900  1
  C  C111  1  0.31735800  0.64163100  0.28614100  1
