# generated using pymatgen
data_Cu6Ni2C7
_symmetry_space_group_name_H-M   'P 1'
_cell_length_a   5.17693500
_cell_length_b   8.57807500
_cell_length_c   16.75368804
_cell_angle_alpha   89.51750588
_cell_angle_beta   90.00000000
_cell_angle_gamma   90.00000000
_symmetry_Int_Tables_number   1
_chemical_formula_structural   Cu6Ni2C7
_chemical_formula_sum   'Cu24 Ni8 C28'
_cell_volume   743.97368850
_cell_formula_units_Z   4
loop_
 _symmetry_equiv_pos_site_id
 _symmetry_equiv_pos_as_xyz
  1  'x, y, z'
loop_
 _atom_site_type_symbol
 _atom_site_label
 _atom_site_symmetry_multiplicity
 _atom_site_fract_x
 _atom_site_fract_y
 _atom_site_fract_z
 _atom_site_occupancy
  Ni  Ni0  1  0.20857100  0.61439200  0.14261000  1
  Ni  Ni1  1  0.20857100  0.38560800  0.85739000  1
  Ni  Ni2  1  0.79077100  0.88932200  0.64374600  1
  Ni  Ni3  1  0.79077100  0.11067800  0.35625400  1
  Ni  Ni4  1  0.00140600  0.28589400  0.09615600  1
  Ni  Ni5  1  0.00140600  0.71410600  0.90384400  1
  Ni  Ni6  1  0.99469500  0.21965300  0.59822100  1
  Ni  Ni7  1  0.99469500  0.78034700  0.40177900  1
  Cu  Cu8  1  0.72690100  0.72673200  0.89064300  1
  Cu  Cu9  1  0.72690100  0.27326800  0.10935700  1
  Cu  Cu10  1  0.27032400  0.76802100  0.38989800  1
  Cu  Cu11  1  0.27032400  0.23197900  0.61010200  1
  Cu  Cu12  1  0.80614500  0.53433200  0.10790600  1
  Cu  Cu13  1  0.80614500  0.46566800  0.89209400  1
  Cu  Cu14  1  0.18943400  0.96988300  0.60325400  1
  Cu  Cu15  1  0.18943400  0.03011700  0.39674600  1
  Cu  Cu16  1  0.04312700  0.22888200  0.22795800  1
  Cu  Cu17  1  0.04312700  0.77111800  0.77204200  1
  Cu  Cu18  1  0.95986300  0.26824600  0.73091400  1
  Cu  Cu19  1  0.95986300  0.73175400  0.26908600  1
  Cu  Cu20  1  0.17271800  0.38184400  0.34376100  1
  Cu  Cu21  1  0.17271800  0.61815600  0.65623900  1
  Cu  Cu22  1  0.82592100  0.11703900  0.84543700  1
  Cu  Cu23  1  0.82592100  0.88296100  0.15456300  1
  Cu  Cu24  1  0.37500800  0.49342400  0.25528900  1
  Cu  Cu25  1  0.37500800  0.50657600  0.74471100  1
  Cu  Cu26  1  0.62594800  0.00700100  0.75686300  1
  Cu  Cu27  1  0.62594800  0.99299900  0.24313700  1
  Cu  Cu28  1  0.39275200  0.49959300  0.37766500  1
  Cu  Cu29  1  0.39275200  0.50040700  0.62233500  1
  Cu  Cu30  1  0.61389200  0.99421800  0.87942600  1
  Cu  Cu31  1  0.61389200  0.00578200  0.12057400  1
  C  C32  1  0.42788500  0.64733400  0.05971100  1
  C  C33  1  0.42788500  0.35266600  0.94028900  1
  C  C34  1  0.57464700  0.85993900  0.55997700  1
  C  C35  1  0.57464700  0.14006100  0.44002300  1
  C  C36  1  0.98769800  0.48676900  0.11386900  1
  C  C37  1  0.98769800  0.51323100  0.88613100  1
  C  C38  1  0.01030800  0.01766000  0.61365400  1
  C  C39  1  0.01030800  0.98234000  0.38634600  1
  C  C40  1  0.07785500  0.75766800  0.17442100  1
  C  C41  1  0.07785500  0.24233200  0.82557900  1
  C  C42  1  0.92182200  0.74518600  0.67569900  1
  C  C43  1  0.92182200  0.25481400  0.32430100  1
  C  C44  1  0.41218700  0.53045600  0.19525800  1
  C  C45  1  0.41218700  0.46954400  0.80474200  1
  C  C46  1  0.58938900  0.97224500  0.69682100  1
  C  C47  1  0.58938900  0.02775500  0.30317900  1
  C  C48  1  0.12486400  0.20624300  0.17502700  1
  C  C49  1  0.12486400  0.79375700  0.82497300  1
  C  C50  1  0.87452400  0.29288000  0.67841200  1
  C  C51  1  0.87452400  0.70712000  0.32158800  1
  C  C52  1  0.38751400  0.23356600  0.98091900  1
  C  C53  1  0.38751400  0.76643400  0.01908100  1
  C  C54  1  0.61305800  0.26142400  0.47904900  1
  C  C55  1  0.61305800  0.73857600  0.52095100  1
  C  C56  1  0.34093700  0.43471900  0.33327700  1
  C  C57  1  0.34093700  0.56528100  0.66672300  1
  C  C58  1  0.65836400  0.06350600  0.83539100  1
  C  C59  1  0.65836400  0.93649400  0.16460900  1
