# generated using pymatgen
data_Cu2NiC9
_symmetry_space_group_name_H-M   'P 1'
_cell_length_a   6.54328700
_cell_length_b   8.98539100
_cell_length_c   10.29410107
_cell_angle_alpha   62.72124932
_cell_angle_beta   90.00000000
_cell_angle_gamma   90.00000000
_symmetry_Int_Tables_number   1
_chemical_formula_structural   Cu2NiC9
_chemical_formula_sum   'Cu8 Ni4 C36'
_cell_volume   537.92187311
_cell_formula_units_Z   4
loop_
 _symmetry_equiv_pos_site_id
 _symmetry_equiv_pos_as_xyz
  1  'x, y, z'
loop_
 _atom_site_type_symbol
 _atom_site_label
 _atom_site_symmetry_multiplicity
 _atom_site_fract_x
 _atom_site_fract_y
 _atom_site_fract_z
 _atom_site_occupancy
  C  C0  1  0.24372000  0.39152000  0.97923000  1
  C  C1  1  0.93599200  0.29373500  0.16806600  1
  C  C2  1  0.74372000  0.60848000  0.52077000  1
  C  C3  1  0.71690500  0.15890600  0.04525200  1
  C  C4  1  0.56400800  0.29373500  0.66806600  1
  C  C5  1  0.21690500  0.84109400  0.45474800  1
  C  C6  1  0.78309500  0.15890600  0.54525200  1
  C  C7  1  0.43599200  0.70626500  0.33193400  1
  C  C8  1  0.28309500  0.84109400  0.95474800  1
  C  C9  1  0.25628000  0.39152000  0.47923000  1
  C  C10  1  0.06400800  0.70626500  0.83193400  1
  C  C11  1  0.75628000  0.60848000  0.02077000  1
  Ni  Ni12  1  0.47098400  0.18934400  0.30046100  1
  Ni  Ni13  1  0.02901600  0.18934400  0.80046100  1
  Ni  Ni14  1  0.97098400  0.81065600  0.19953900  1
  Ni  Ni15  1  0.52901600  0.81065600  0.69953900  1
  Cu  Cu16  1  0.33556400  0.53912500  0.67528500  1
  Cu  Cu17  1  0.83556400  0.46087500  0.82471500  1
  Cu  Cu18  1  0.83064200  0.95122100  0.39003200  1
  Cu  Cu19  1  0.33064200  0.04877900  0.10996800  1
  Cu  Cu20  1  0.66935800  0.95122100  0.89003200  1
  Cu  Cu21  1  0.16935800  0.04877900  0.60996800  1
  Cu  Cu22  1  0.16443600  0.53912500  0.17528500  1
  Cu  Cu23  1  0.66443600  0.46087500  0.32471500  1
  C  C24  1  0.79450200  0.61526000  0.81878400  1
  C  C25  1  0.28831700  0.58039300  0.78733300  1
  C  C26  1  0.43512000  0.66215200  0.55175800  1
  C  C27  1  0.93512000  0.33784800  0.94824200  1
  C  C28  1  0.78831700  0.41960700  0.71266700  1
  C  C29  1  0.72370600  0.99472400  0.48392900  1
  C  C30  1  0.43030500  0.20096400  0.06017700  1
  C  C31  1  0.29450200  0.38474000  0.68121600  1
  C  C32  1  0.82690500  0.06264200  0.24149000  1
  C  C33  1  0.32690500  0.93735800  0.25851000  1
  C  C34  1  0.93030500  0.79903600  0.43982300  1
  C  C35  1  0.22370600  0.00527600  0.01607100  1
  C  C36  1  0.77629400  0.99472400  0.98392900  1
  C  C37  1  0.06969500  0.20096400  0.56017700  1
  C  C38  1  0.67309500  0.06264200  0.74149000  1
  C  C39  1  0.17309500  0.93735800  0.75851000  1
  C  C40  1  0.70549800  0.61526000  0.31878400  1
  C  C41  1  0.56969500  0.79903600  0.93982300  1
  C  C42  1  0.27629400  0.00527600  0.51607100  1
  C  C43  1  0.21168300  0.58039300  0.28733300  1
  C  C44  1  0.06488000  0.66215200  0.05175800  1
  C  C45  1  0.56488000  0.33784800  0.44824200  1
  C  C46  1  0.71168300  0.41960700  0.21266700  1
  C  C47  1  0.20549800  0.38474000  0.18121600  1
