# generated using pymatgen
data_Cu(NiC)2
_symmetry_space_group_name_H-M   'P 1'
_cell_length_a   5.27389574
_cell_length_b   5.58467718
_cell_length_c   4.92738372
_cell_angle_alpha   113.62542352
_cell_angle_beta   63.94105132
_cell_angle_gamma   120.67994574
_symmetry_Int_Tables_number   1
_chemical_formula_structural   Cu(NiC)2
_chemical_formula_sum   'Cu2 Ni4 C4'
_cell_volume   109.15615724
_cell_formula_units_Z   2
loop_
 _symmetry_equiv_pos_site_id
 _symmetry_equiv_pos_as_xyz
  1  'x, y, z'
loop_
 _atom_site_type_symbol
 _atom_site_label
 _atom_site_symmetry_multiplicity
 _atom_site_fract_x
 _atom_site_fract_y
 _atom_site_fract_z
 _atom_site_occupancy
  C  C0  1  0.84380300  0.62227100  0.93767100  1
  C  C1  1  0.15181400  0.44490400  0.14719300  1
  C  C2  1  0.35368600  0.03596800  0.31823400  1
  C  C3  1  0.66964800  0.96473000  0.65220400  1
  Ni  Ni4  1  0.06655900  0.18980800  0.38270400  1
  Ni  Ni5  1  0.51087800  0.75855200  0.29561000  1
  Ni  Ni6  1  0.27221500  0.76012700  0.94830000  1
  Ni  Ni7  1  0.77966300  0.24738200  0.02331500  1
  Cu  Cu8  1  0.43428200  0.25164100  0.72056800  1
  Cu  Cu9  1  0.91745000  0.72461900  0.57420100  1
