# generated using pymatgen
data_Cu3NiC14
_symmetry_space_group_name_H-M   'P 1'
_cell_length_a   8.58531137
_cell_length_b   8.58531137
_cell_length_c   8.58531144
_cell_angle_alpha   61.49317371
_cell_angle_beta   61.49317371
_cell_angle_gamma   61.49317668
_symmetry_Int_Tables_number   1
_chemical_formula_structural   Cu3NiC14
_chemical_formula_sum   'Cu6 Ni2 C28'
_cell_volume   462.45752638
_cell_formula_units_Z   2
loop_
 _symmetry_equiv_pos_site_id
 _symmetry_equiv_pos_as_xyz
  1  'x, y, z'
loop_
 _atom_site_type_symbol
 _atom_site_label
 _atom_site_symmetry_multiplicity
 _atom_site_fract_x
 _atom_site_fract_y
 _atom_site_fract_z
 _atom_site_occupancy
  C  C0  1  0.34837800  0.34837800  0.34837800  1
  C  C1  1  0.15060500  0.15060500  0.15060500  1
  C  C2  1  0.64982700  0.64982700  0.64982700  1
  C  C3  1  0.84897900  0.84897900  0.84897900  1
  Ni  Ni4  1  0.99917000  0.99917000  0.99917000  1
  Ni  Ni5  1  0.50016200  0.50016200  0.50016200  1
  Cu  Cu6  1  0.45287100  0.75162300  0.04835400  1
  Cu  Cu7  1  0.75162300  0.04835400  0.45287100  1
  Cu  Cu8  1  0.04835400  0.45287100  0.75162300  1
  Cu  Cu9  1  0.94623400  0.55341600  0.24884200  1
  Cu  Cu10  1  0.24884200  0.94623400  0.55341600  1
  Cu  Cu11  1  0.55341600  0.24884200  0.94623400  1
  C  C12  1  0.67613900  0.90431100  0.48738200  1
  C  C13  1  0.90431100  0.48738200  0.67613900  1
  C  C14  1  0.48738200  0.67613900  0.90431100  1
  C  C15  1  0.24938100  0.90418500  0.06558600  1
  C  C16  1  0.60504200  0.82696800  0.00173400  1
  C  C17  1  0.43947300  0.60159600  0.25045000  1
  C  C18  1  0.90418500  0.06558600  0.24938100  1
  C  C19  1  0.60159600  0.25045000  0.43947300  1
  C  C20  1  0.98220700  0.40311100  0.18005800  1
  C  C21  1  0.25045000  0.43947300  0.60159600  1
  C  C22  1  0.92776100  0.75489300  0.09082000  1
  C  C23  1  0.18005800  0.98220700  0.40311100  1
  C  C24  1  0.82696800  0.00173400  0.60504200  1
  C  C25  1  0.06558600  0.24938100  0.90418500  1
  C  C26  1  0.74344000  0.57226300  0.40107900  1
  C  C27  1  0.00173400  0.60504200  0.82696800  1
  C  C28  1  0.40107900  0.74344000  0.57226300  1
  C  C29  1  0.09082000  0.92776100  0.75489300  1
  C  C30  1  0.57226300  0.40107900  0.74344000  1
  C  C31  1  0.40311100  0.18005800  0.98220700  1
  C  C32  1  0.75489300  0.09082000  0.92776100  1
  C  C33  1  0.52214300  0.31940800  0.09208500  1
  C  C34  1  0.09208500  0.52214300  0.31940800  1
  C  C35  1  0.31940800  0.09208500  0.52214300  1
