# generated using pymatgen
data_Cu34NiC17
_symmetry_space_group_name_H-M   'P 1'
_cell_length_a   14.16258515
_cell_length_b   14.16258515
_cell_length_c   14.16258515
_cell_angle_alpha   60.00000000
_cell_angle_beta   60.00000000
_cell_angle_gamma   60.00000000
_symmetry_Int_Tables_number   1
_chemical_formula_structural   Cu34NiC17
_chemical_formula_sum   'Cu68 Ni2 C34'
_cell_volume   2008.68855154
_cell_formula_units_Z   2
loop_
 _symmetry_equiv_pos_site_id
 _symmetry_equiv_pos_as_xyz
  1  'x, y, z'
loop_
 _atom_site_type_symbol
 _atom_site_label
 _atom_site_symmetry_multiplicity
 _atom_site_fract_x
 _atom_site_fract_y
 _atom_site_fract_z
 _atom_site_occupancy
  C  C0  1  0.50000000  0.50000000  0.50000000  1
  C  C1  1  0.75000000  0.75000000  0.75000000  1
  C  C2  1  0.77610600  0.40796500  0.40796500  1
  C  C3  1  0.40796500  0.77610600  0.40796500  1
  C  C4  1  0.40796500  0.40796500  0.77610600  1
  C  C5  1  0.40796500  0.40796500  0.40796500  1
  C  C6  1  0.47389400  0.84203500  0.84203500  1
  C  C7  1  0.84203500  0.47389400  0.84203500  1
  C  C8  1  0.84203500  0.84203500  0.47389400  1
  C  C9  1  0.84203500  0.84203500  0.84203500  1
  C  C10  1  0.86029000  0.25459000  0.25459000  1
  C  C11  1  0.25459000  0.86029000  0.63053000  1
  C  C12  1  0.25459000  0.63053000  0.86029000  1
  C  C13  1  0.63053000  0.25459000  0.25459000  1
  C  C14  1  0.25459000  0.25459000  0.86029000  1
  C  C15  1  0.86029000  0.63053000  0.25459000  1
  C  C16  1  0.63053000  0.86029000  0.25459000  1
  C  C17  1  0.25459000  0.25459000  0.63053000  1
  C  C18  1  0.25459000  0.86029000  0.25459000  1
  C  C19  1  0.63053000  0.25459000  0.86029000  1
  C  C20  1  0.86029000  0.25459000  0.63053000  1
  C  C21  1  0.25459000  0.63053000  0.25459000  1
  C  C22  1  0.38971000  0.99541000  0.99541000  1
  C  C23  1  0.99541000  0.38971000  0.61947000  1
  C  C24  1  0.99541000  0.61947000  0.38971000  1
  C  C25  1  0.61947000  0.99541000  0.99541000  1
  C  C26  1  0.99541000  0.99541000  0.38971000  1
  C  C27  1  0.38971000  0.61947000  0.99541000  1
  C  C28  1  0.61947000  0.38971000  0.99541000  1
  C  C29  1  0.99541000  0.99541000  0.61947000  1
  C  C30  1  0.99541000  0.38971000  0.99541000  1
  C  C31  1  0.61947000  0.99541000  0.38971000  1
  C  C32  1  0.38971000  0.99541000  0.61947000  1
  C  C33  1  0.99541000  0.61947000  0.99541000  1
  Ni  Ni34  1  0.00000000  0.00000000  0.00000000  1
  Ni  Ni35  1  0.25000000  0.25000000  0.25000000  1
  Cu  Cu36  1  0.12500000  0.62500000  0.93804400  1
  Cu  Cu37  1  0.62500000  0.12500000  0.31195600  1
  Cu  Cu38  1  0.93804400  0.31195600  0.12500000  1
  Cu  Cu39  1  0.31195600  0.93804400  0.62500000  1
  Cu  Cu40  1  0.62500000  0.93804400  0.12500000  1
  Cu  Cu41  1  0.12500000  0.31195600  0.62500000  1
  Cu  Cu42  1  0.31195600  0.12500000  0.93804400  1
  Cu  Cu43  1  0.93804400  0.62500000  0.31195600  1
  Cu  Cu44  1  0.93804400  0.12500000  0.62500000  1
  Cu  Cu45  1  0.31195600  0.62500000  0.12500000  1
  Cu  Cu46  1  0.12500000  0.93804400  0.31195600  1
  Cu  Cu47  1  0.62500000  0.31195600  0.93804400  1
  Cu  Cu48  1  0.12500000  0.93804400  0.62500000  1
  Cu  Cu49  1  0.62500000  0.31195600  0.12500000  1
  Cu  Cu50  1  0.93804400  0.12500000  0.31195600  1
  Cu  Cu51  1  0.31195600  0.62500000  0.93804400  1
  Cu  Cu52  1  0.62500000  0.12500000  0.93804400  1
  Cu  Cu53  1  0.12500000  0.62500000  0.31195600  1
  Cu  Cu54  1  0.31195600  0.93804400  0.12500000  1
  Cu  Cu55  1  0.93804400  0.31195600  0.62500000  1
  Cu  Cu56  1  0.93804400  0.62500000  0.12500000  1
  Cu  Cu57  1  0.31195600  0.12500000  0.62500000  1
  Cu  Cu58  1  0.12500000  0.31195600  0.93804400  1
  Cu  Cu59  1  0.62500000  0.93804400  0.31195600  1
  Cu  Cu60  1  0.81953000  0.33114500  0.33114500  1
  Cu  Cu61  1  0.33114500  0.81953000  0.51818000  1
  Cu  Cu62  1  0.33114500  0.51818000  0.81953000  1
  Cu  Cu63  1  0.51818000  0.33114500  0.33114500  1
  Cu  Cu64  1  0.33114500  0.33114500  0.81953000  1
  Cu  Cu65  1  0.81953000  0.51818000  0.33114500  1
  Cu  Cu66  1  0.51818000  0.81953000  0.33114500  1
  Cu  Cu67  1  0.33114500  0.33114500  0.51818000  1
  Cu  Cu68  1  0.33114500  0.81953000  0.33114500  1
  Cu  Cu69  1  0.51818000  0.33114500  0.81953000  1
  Cu  Cu70  1  0.81953000  0.33114500  0.51818000  1
  Cu  Cu71  1  0.33114500  0.51818000  0.33114500  1
  Cu  Cu72  1  0.43047000  0.91885500  0.91885500  1
  Cu  Cu73  1  0.91885500  0.43047000  0.73182000  1
  Cu  Cu74  1  0.91885500  0.73182000  0.43047000  1
  Cu  Cu75  1  0.73182000  0.91885500  0.91885500  1
  Cu  Cu76  1  0.91885500  0.91885500  0.43047000  1
  Cu  Cu77  1  0.43047000  0.73182000  0.91885500  1
  Cu  Cu78  1  0.73182000  0.43047000  0.91885500  1
  Cu  Cu79  1  0.91885500  0.91885500  0.73182000  1
  Cu  Cu80  1  0.91885500  0.43047000  0.91885500  1
  Cu  Cu81  1  0.73182000  0.91885500  0.43047000  1
  Cu  Cu82  1  0.43047000  0.91885500  0.73182000  1
  Cu  Cu83  1  0.91885500  0.73182000  0.91885500  1
  Cu  Cu84  1  0.74850400  0.25149600  0.25149600  1
  Cu  Cu85  1  0.25149600  0.74850400  0.74850400  1
  Cu  Cu86  1  0.25149600  0.25149600  0.74850400  1
  Cu  Cu87  1  0.74850400  0.74850400  0.25149600  1
  Cu  Cu88  1  0.25149600  0.74850400  0.25149600  1
  Cu  Cu89  1  0.74850400  0.25149600  0.74850400  1
  Cu  Cu90  1  0.50149600  0.99850400  0.99850400  1
  Cu  Cu91  1  0.99850400  0.50149600  0.50149600  1
  Cu  Cu92  1  0.99850400  0.99850400  0.50149600  1
  Cu  Cu93  1  0.50149600  0.50149600  0.99850400  1
  Cu  Cu94  1  0.99850400  0.50149600  0.99850400  1
  Cu  Cu95  1  0.50149600  0.99850400  0.50149600  1
  Cu  Cu96  1  0.63785300  0.45404900  0.45404900  1
  Cu  Cu97  1  0.45404900  0.63785300  0.45404900  1
  Cu  Cu98  1  0.45404900  0.45404900  0.63785300  1
  Cu  Cu99  1  0.45404900  0.45404900  0.45404900  1
  Cu  Cu100  1  0.61214700  0.79595100  0.79595100  1
  Cu  Cu101  1  0.79595100  0.61214700  0.79595100  1
  Cu  Cu102  1  0.79595100  0.79595100  0.61214700  1
  Cu  Cu103  1  0.79595100  0.79595100  0.79595100  1
