# generated using pymatgen
data_Cu4Ni29C13
_symmetry_space_group_name_H-M   'P 1'
_cell_length_a   11.13335500
_cell_length_b   11.13335500
_cell_length_c   7.82503100
_cell_angle_alpha   90.00000000
_cell_angle_beta   90.00000000
_cell_angle_gamma   90.00000000
_symmetry_Int_Tables_number   1
_chemical_formula_structural   Cu4Ni29C13
_chemical_formula_sum   'Cu8 Ni58 C26'
_cell_volume   969.92506208
_cell_formula_units_Z   2
loop_
 _symmetry_equiv_pos_site_id
 _symmetry_equiv_pos_as_xyz
  1  'x, y, z'
loop_
 _atom_site_type_symbol
 _atom_site_label
 _atom_site_symmetry_multiplicity
 _atom_site_fract_x
 _atom_site_fract_y
 _atom_site_fract_z
 _atom_site_occupancy
  C  C0  1  0.75000000  0.25000000  0.00000000  1
  C  C1  1  0.25000000  0.25000000  0.00000000  1
  C  C2  1  0.50000000  0.50000000  0.50000000  1
  C  C3  1  0.75000000  0.75000000  0.00000000  1
  C  C4  1  0.25000000  0.75000000  0.00000000  1
  C  C5  1  0.00000000  0.00000000  0.50000000  1
  Ni  Ni6  1  0.00000000  0.27224700  0.47399800  1
  Ni  Ni7  1  0.33847600  0.32570000  0.33591300  1
  Ni  Ni8  1  0.66152400  0.32570000  0.33591300  1
  Ni  Ni9  1  0.00000000  0.33552900  0.97099800  1
  Ni  Ni10  1  0.32570000  0.33847600  0.66408700  1
  Ni  Ni11  1  0.67430000  0.33847600  0.66408700  1
  Ni  Ni12  1  0.88435300  0.38435300  0.24978400  1
  Ni  Ni13  1  0.11564700  0.38435300  0.24978400  1
  Ni  Ni14  1  0.50000000  0.38973300  0.11124300  1
  Ni  Ni15  1  0.88983800  0.38983800  0.69891800  1
  Ni  Ni16  1  0.11016200  0.38983800  0.69891800  1
  Ni  Ni17  1  0.83552900  0.50000000  0.97099800  1
  Ni  Ni18  1  0.77224700  0.50000000  0.47399800  1
  Ni  Ni19  1  0.00000000  0.50000000  0.46720900  1
  Ni  Ni20  1  0.38973300  0.50000000  0.88875700  1
  Ni  Ni21  1  0.61026700  0.50000000  0.88875700  1
  Ni  Ni22  1  0.16447100  0.50000000  0.97099800  1
  Ni  Ni23  1  0.22775300  0.50000000  0.47399800  1
  Ni  Ni24  1  0.88983800  0.61016200  0.69891800  1
  Ni  Ni25  1  0.11016200  0.61016200  0.69891800  1
  Ni  Ni26  1  0.50000000  0.61026700  0.11124300  1
  Ni  Ni27  1  0.88435300  0.61564700  0.24978400  1
  Ni  Ni28  1  0.11564700  0.61564700  0.24978400  1
  Ni  Ni29  1  0.32570000  0.66152400  0.66408700  1
  Ni  Ni30  1  0.67430000  0.66152400  0.66408700  1
  Ni  Ni31  1  0.00000000  0.66447100  0.97099800  1
  Ni  Ni32  1  0.33847600  0.67430000  0.33591300  1
  Ni  Ni33  1  0.66152400  0.67430000  0.33591300  1
  Ni  Ni34  1  0.00000000  0.72775300  0.47399800  1
  Ni  Ni35  1  0.50000000  0.77224700  0.52600200  1
  Ni  Ni36  1  0.83847600  0.82570000  0.66408700  1
  Ni  Ni37  1  0.16152400  0.82570000  0.66408700  1
  Ni  Ni38  1  0.50000000  0.83552900  0.02900200  1
  Ni  Ni39  1  0.82570000  0.83847600  0.33591300  1
  Ni  Ni40  1  0.17430000  0.83847600  0.33591300  1
  Ni  Ni41  1  0.38435300  0.88435300  0.75021600  1
  Ni  Ni42  1  0.61564700  0.88435300  0.75021600  1
  Ni  Ni43  1  0.00000000  0.88973300  0.88875700  1
  Ni  Ni44  1  0.38983800  0.88983800  0.30108200  1
  Ni  Ni45  1  0.61016200  0.88983800  0.30108200  1
  Ni  Ni46  1  0.66447100  0.00000000  0.02900200  1
  Ni  Ni47  1  0.72775300  0.00000000  0.52600200  1
  Ni  Ni48  1  0.88973300  0.00000000  0.11124300  1
  Ni  Ni49  1  0.11026700  0.00000000  0.11124300  1
  Ni  Ni50  1  0.27224700  0.00000000  0.52600200  1
  Ni  Ni51  1  0.33552900  0.00000000  0.02900200  1
  Ni  Ni52  1  0.50000000  0.00000000  0.53279100  1
  Ni  Ni53  1  0.38983800  0.11016200  0.30108200  1
  Ni  Ni54  1  0.61016200  0.11016200  0.30108200  1
  Ni  Ni55  1  0.00000000  0.11026700  0.88875700  1
  Ni  Ni56  1  0.38435300  0.11564700  0.75021600  1
  Ni  Ni57  1  0.61564700  0.11564700  0.75021600  1
  Ni  Ni58  1  0.82570000  0.16152400  0.33591300  1
  Ni  Ni59  1  0.17430000  0.16152400  0.33591300  1
  Ni  Ni60  1  0.50000000  0.16447100  0.02900200  1
  Ni  Ni61  1  0.83847600  0.17430000  0.66408700  1
  Ni  Ni62  1  0.16152400  0.17430000  0.66408700  1
  Ni  Ni63  1  0.50000000  0.22775300  0.52600200  1
  Cu  Cu64  1  0.50000000  0.31804600  0.82475400  1
  Cu  Cu65  1  0.31804600  0.50000000  0.17524600  1
  Cu  Cu66  1  0.68195400  0.50000000  0.17524600  1
  Cu  Cu67  1  0.50000000  0.68195400  0.82475400  1
  Cu  Cu68  1  0.00000000  0.81804600  0.17524600  1
  Cu  Cu69  1  0.81804600  0.00000000  0.82475400  1
  Cu  Cu70  1  0.18195400  0.00000000  0.82475400  1
  Cu  Cu71  1  0.00000000  0.18195400  0.17524600  1
  C  C72  1  0.81344200  0.31344200  0.48227300  1
  C  C73  1  0.18655800  0.31344200  0.48227300  1
  C  C74  1  0.50000000  0.25628900  0.26334200  1
  C  C75  1  0.00000000  0.50000000  0.10799000  1
  C  C76  1  0.00000000  0.50000000  0.85108400  1
  C  C77  1  0.25628900  0.50000000  0.73665800  1
  C  C78  1  0.74371100  0.50000000  0.73665800  1
  C  C79  1  0.50000000  0.74371100  0.26334200  1
  C  C80  1  0.81344200  0.68655800  0.48227300  1
  C  C81  1  0.18655800  0.68655800  0.48227300  1
  C  C82  1  0.31344200  0.81344200  0.51772700  1
  C  C83  1  0.68655800  0.81344200  0.51772700  1
  C  C84  1  0.00000000  0.75628900  0.73665800  1
  C  C85  1  0.75628900  0.00000000  0.26334200  1
  C  C86  1  0.24371100  0.00000000  0.26334200  1
  C  C87  1  0.50000000  0.00000000  0.14891600  1
  C  C88  1  0.50000000  0.00000000  0.89201000  1
  C  C89  1  0.00000000  0.24371100  0.73665800  1
  C  C90  1  0.68655800  0.18655800  0.51772700  1
  C  C91  1  0.31344200  0.18655800  0.51772700  1
