# generated using pymatgen
data_Cu7Ni3C40
_symmetry_space_group_name_H-M   'P 1'
_cell_length_a   5.56401030
_cell_length_b   5.57158498
_cell_length_c   39.25082494
_cell_angle_alpha   90.00000000
_cell_angle_beta   90.00000000
_cell_angle_gamma   90.30540071
_symmetry_Int_Tables_number   1
_chemical_formula_structural   Cu7Ni3C40
_chemical_formula_sum   'Cu14 Ni6 C80'
_cell_volume   1216.77226896
_cell_formula_units_Z   2
loop_
 _symmetry_equiv_pos_site_id
 _symmetry_equiv_pos_as_xyz
  1  'x, y, z'
loop_
 _atom_site_type_symbol
 _atom_site_label
 _atom_site_symmetry_multiplicity
 _atom_site_fract_x
 _atom_site_fract_y
 _atom_site_fract_z
 _atom_site_occupancy
  Ni  Ni0  1  0.03758283  0.99033061  0.25000000  1
  Ni  Ni1  1  0.53074160  0.51037438  0.04954123  1
  Ni  Ni2  1  0.53074160  0.51037438  0.45045877  1
  Ni  Ni3  1  0.96170921  0.00981574  0.54917574  1
  Ni  Ni4  1  0.96320813  0.01045889  0.75000000  1
  Ni  Ni5  1  0.96170921  0.00981574  0.95082426  1
  Cu  Cu6  1  0.03169288  0.99443527  0.04866070  1
  Cu  Cu7  1  0.03169288  0.99443527  0.45133930  1
  Cu  Cu8  1  0.02668864  0.99356518  0.64961017  1
  Cu  Cu9  1  0.02668864  0.99356518  0.85038983  1
  Cu  Cu10  1  0.47565932  0.49317074  0.35093658  1
  Cu  Cu11  1  0.47565932  0.49317074  0.14906342  1
  Cu  Cu12  1  0.47638600  0.49321665  0.54812053  1
  Cu  Cu13  1  0.47741971  0.49330197  0.75000000  1
  Cu  Cu14  1  0.47638600  0.49321665  0.95187947  1
  Cu  Cu15  1  0.52412106  0.50796790  0.25000000  1
  Cu  Cu16  1  0.52516733  0.50657551  0.64936684  1
  Cu  Cu17  1  0.52516733  0.50657551  0.85063316  1
  Cu  Cu18  1  0.97228891  0.00548406  0.15048329  1
  Cu  Cu19  1  0.97228891  0.00548406  0.34951671  1
  C  C20  1  0.99946603  0.50144139  0.09877718  1
  C  C21  1  0.99946603  0.50144139  0.40122282  1
  C  C22  1  0.00100019  0.49927597  0.79910474  1
  C  C23  1  0.00088645  0.49844161  0.90167563  1
  C  C24  1  0.99959963  0.49924618  0.99995239  1
  C  C25  1  0.99986267  0.50166194  0.20101408  1
  C  C26  1  0.99986267  0.50166194  0.29898592  1
  C  C27  1  0.99959963  0.49924618  0.50004761  1
  C  C28  1  0.00100019  0.49927597  0.70089526  1
  C  C29  1  0.00088645  0.49844161  0.59832437  1
  C  C30  1  0.50022821  0.99988615  0.09915924  1
  C  C31  1  0.50056878  0.99877751  0.49964488  1
  C  C32  1  0.49942916  0.00125770  0.29946274  1
  C  C33  1  0.50056878  0.99877751  0.00035512  1
  C  C34  1  0.50008142  0.99979407  0.70037923  1
  C  C35  1  0.50003941  0.00000099  0.90107615  1
  C  C36  1  0.49942916  0.00125770  0.20053726  1
  C  C37  1  0.50022821  0.99988615  0.40084076  1
  C  C38  1  0.50003941  0.00000099  0.59892385  1
  C  C39  1  0.50008142  0.99979407  0.79962077  1
  C  C40  1  0.01008093  0.57266038  0.14988596  1
  C  C41  1  0.01008093  0.57266038  0.35011404  1
  C  C42  1  0.01241086  0.58201275  0.54967623  1
  C  C43  1  0.01041383  0.58225484  0.75000000  1
  C  C44  1  0.01241086  0.58201275  0.95032377  1
  C  C45  1  0.22067847  0.22380415  0.10864454  1
  C  C46  1  0.22571943  0.23034073  0.19111789  1
  C  C47  1  0.22571943  0.23034073  0.30888211  1
  C  C48  1  0.22067847  0.22380415  0.39135546  1
  C  C49  1  0.21694883  0.21943537  0.50856610  1
  C  C50  1  0.22235114  0.22735760  0.59134553  1
  C  C51  1  0.22194489  0.22626744  0.70848261  1
  C  C52  1  0.22194489  0.22626744  0.79151739  1
  C  C53  1  0.22235114  0.22735760  0.90865447  1
  C  C54  1  0.21694883  0.21943537  0.99143390  1
  C  C55  1  0.27703542  0.71448894  0.00915858  1
  C  C56  1  0.27365000  0.71920371  0.09157344  1
  C  C57  1  0.27372863  0.72447267  0.20802637  1
  C  C58  1  0.27372863  0.72447267  0.29197363  1
  C  C59  1  0.27365000  0.71920371  0.40842656  1
  C  C60  1  0.27226352  0.72379197  0.60841408  1
  C  C61  1  0.27399100  0.72268108  0.80887467  1
  C  C62  1  0.27703542  0.71448894  0.49084142  1
  C  C63  1  0.27226352  0.72379197  0.89158592  1
  C  C64  1  0.27399100  0.72268108  0.69112533  1
  C  C65  1  0.47883797  0.09138947  0.05000866  1
  C  C66  1  0.48440098  0.08093206  0.64973717  1
  C  C67  1  0.47558601  0.08670048  0.25000000  1
  C  C68  1  0.47883797  0.09138947  0.44999134  1
  C  C69  1  0.48440098  0.08093206  0.85026283  1
  C  C70  1  0.51438578  0.91873868  0.34994503  1
  C  C71  1  0.51438578  0.91873868  0.15005497  1
  C  C72  1  0.52421262  0.91355224  0.54961518  1
  C  C73  1  0.52474745  0.91431524  0.75000000  1
  C  C74  1  0.52421262  0.91355224  0.95038482  1
  C  C75  1  0.73084137  0.27323305  0.10892960  1
  C  C76  1  0.72472853  0.27872056  0.30870946  1
  C  C77  1  0.72472853  0.27872056  0.19129054  1
  C  C78  1  0.73084137  0.27323305  0.39107040  1
  C  C79  1  0.72857493  0.27611145  0.50814350  1
  C  C80  1  0.72624563  0.27946486  0.59170524  1
  C  C81  1  0.72613444  0.27742788  0.70790798  1
  C  C82  1  0.72624563  0.27946486  0.90829476  1
  C  C83  1  0.72613444  0.27742788  0.79209202  1
  C  C84  1  0.72857493  0.27611145  0.99185650  1
  C  C85  1  0.77833466  0.77184405  0.00869666  1
  C  C86  1  0.77848600  0.77392608  0.09224199  1
  C  C87  1  0.77816601  0.77604535  0.20851138  1
  C  C88  1  0.77816601  0.77604535  0.29148862  1
  C  C89  1  0.77848600  0.77392608  0.40775801  1
  C  C90  1  0.77833466  0.77184405  0.49130334  1
  C  C91  1  0.77528497  0.77091658  0.60875901  1
  C  C92  1  0.77490470  0.77027860  0.69085465  1
  C  C93  1  0.77490470  0.77027860  0.80914535  1
  C  C94  1  0.77528497  0.77091658  0.89124099  1
  C  C95  1  0.98913759  0.41822946  0.25000000  1
  C  C96  1  0.98155278  0.42601479  0.05010136  1
  C  C97  1  0.99150137  0.42668675  0.64971159  1
  C  C98  1  0.98155278  0.42601479  0.44989864  1
  C  C99  1  0.99150137  0.42668675  0.85028841  1
