# generated using pymatgen
data_Cu8(NiC5)3
_symmetry_space_group_name_H-M   'P 1'
_cell_length_a   6.12864686
_cell_length_b   6.12864686
_cell_length_c   16.23658476
_cell_angle_alpha   76.74502448
_cell_angle_beta   76.74502448
_cell_angle_gamma   60.03024099
_symmetry_Int_Tables_number   1
_chemical_formula_structural   Cu8(NiC5)3
_chemical_formula_sum   'Cu16 Ni6 C30'
_cell_volume   509.44930209
_cell_formula_units_Z   2
loop_
 _symmetry_equiv_pos_site_id
 _symmetry_equiv_pos_as_xyz
  1  'x, y, z'
loop_
 _atom_site_type_symbol
 _atom_site_label
 _atom_site_symmetry_multiplicity
 _atom_site_fract_x
 _atom_site_fract_y
 _atom_site_fract_z
 _atom_site_occupancy
  C  C0  1  0.38793200  0.71015000  0.78430200  1
  C  C1  1  0.71015000  0.38793200  0.28430200  1
  C  C2  1  0.61206800  0.28985000  0.21569800  1
  C  C3  1  0.28985000  0.61206800  0.71569800  1
  C  C4  1  0.08244100  0.78246000  0.79318500  1
  C  C5  1  0.78246000  0.08244100  0.29318500  1
  C  C6  1  0.91755900  0.21754000  0.20681500  1
  C  C7  1  0.21754000  0.91755900  0.70681500  1
  C  C8  1  0.30918000  0.65804600  0.06630000  1
  C  C9  1  0.65804600  0.30918000  0.56630000  1
  C  C10  1  0.69082000  0.34195400  0.93370000  1
  C  C11  1  0.34195400  0.69082000  0.43370000  1
  C  C12  1  0.16637800  0.47281900  0.07133700  1
  C  C13  1  0.47281900  0.16637800  0.57133700  1
  C  C14  1  0.83362200  0.52718100  0.92866300  1
  C  C15  1  0.52718100  0.83362200  0.42866300  1
  C  C16  1  0.17172900  0.68084700  0.98311100  1
  C  C17  1  0.68084700  0.17172900  0.48311100  1
  C  C18  1  0.82827100  0.31915300  0.01688900  1
  C  C19  1  0.31915300  0.82827100  0.51688900  1
  C  C20  1  0.98697700  0.79273000  0.07389100  1
  C  C21  1  0.79273000  0.98697700  0.57389100  1
  C  C22  1  0.01302300  0.20727000  0.92610900  1
  C  C23  1  0.20727000  0.01302300  0.42610900  1
  C  C24  1  0.73400100  0.26599900  0.75000000  1
  C  C25  1  0.26599900  0.73400100  0.25000000  1
  C  C26  1  0.43949700  0.94832900  0.13592400  1
  C  C27  1  0.94832900  0.43949700  0.63592400  1
  C  C28  1  0.56050300  0.05167100  0.86407600  1
  C  C29  1  0.05167100  0.56050300  0.36407600  1
  Ni  Ni30  1  0.24630600  0.75369400  0.75000000  1
  Ni  Ni31  1  0.75369400  0.24630600  0.25000000  1
  Ni  Ni32  1  0.15790300  0.65154100  0.04842600  1
  Ni  Ni33  1  0.65154100  0.15790300  0.54842600  1
  Ni  Ni34  1  0.84209700  0.34845900  0.95157400  1
  Ni  Ni35  1  0.34845900  0.84209700  0.45157400  1
  Cu  Cu36  1  0.38640800  0.84867100  0.24323100  1
  Cu  Cu37  1  0.84867100  0.38640800  0.74323100  1
  Cu  Cu38  1  0.61359200  0.15132900  0.75676900  1
  Cu  Cu39  1  0.15132900  0.61359200  0.25676900  1
  Cu  Cu40  1  0.64568800  0.05870800  0.12133300  1
  Cu  Cu41  1  0.05870800  0.64568800  0.62133300  1
  Cu  Cu42  1  0.35431200  0.94129200  0.87866700  1
  Cu  Cu43  1  0.94129200  0.35431200  0.37866700  1
  Cu  Cu44  1  0.15524100  0.17670800  0.10889900  1
  Cu  Cu45  1  0.17670800  0.15524100  0.60889900  1
  Cu  Cu46  1  0.84475900  0.82329200  0.89110100  1
  Cu  Cu47  1  0.82329200  0.84475900  0.39110100  1
  Cu  Cu48  1  0.55630500  0.69538500  0.08608400  1
  Cu  Cu49  1  0.69538500  0.55630500  0.58608400  1
  Cu  Cu50  1  0.44369500  0.30461500  0.91391600  1
  Cu  Cu51  1  0.30461500  0.44369500  0.41391600  1
