# generated using pymatgen
data_Cu8Ni4C15
_symmetry_space_group_name_H-M   'P 1'
_cell_length_a   11.74932600
_cell_length_b   6.47161400
_cell_length_c   10.44462610
_cell_angle_alpha   87.61743518
_cell_angle_beta   90.00000000
_cell_angle_gamma   90.00000000
_symmetry_Int_Tables_number   1
_chemical_formula_structural   Cu8Ni4C15
_chemical_formula_sum   'Cu16 Ni8 C30'
_cell_volume   793.49256012
_cell_formula_units_Z   2
loop_
 _symmetry_equiv_pos_site_id
 _symmetry_equiv_pos_as_xyz
  1  'x, y, z'
loop_
 _atom_site_type_symbol
 _atom_site_label
 _atom_site_symmetry_multiplicity
 _atom_site_fract_x
 _atom_site_fract_y
 _atom_site_fract_z
 _atom_site_occupancy
  C  C0  1  0.25000000  0.30196500  0.67126800  1
  C  C1  1  0.75000000  0.69803500  0.32873200  1
  C  C2  1  0.25000000  0.39215300  0.02572200  1
  C  C3  1  0.75000000  0.60784700  0.97427800  1
  C  C4  1  0.25000000  0.24970300  0.29931700  1
  C  C5  1  0.75000000  0.75029700  0.70068300  1
  C  C6  1  0.92199700  0.34645900  0.30574100  1
  C  C7  1  0.42199700  0.65354100  0.69425900  1
  C  C8  1  0.07800300  0.65354100  0.69425900  1
  C  C9  1  0.57800300  0.34645900  0.30574100  1
  C  C10  1  0.68340300  0.05557000  0.55512400  1
  C  C11  1  0.18340300  0.94443000  0.44487600  1
  C  C12  1  0.31659700  0.94443000  0.44487600  1
  C  C13  1  0.81659700  0.05557000  0.55512400  1
  C  C14  1  0.05183400  0.25618000  0.75327300  1
  C  C15  1  0.55183400  0.74382000  0.24672700  1
  C  C16  1  0.94816600  0.74382000  0.24672700  1
  C  C17  1  0.44816600  0.25618000  0.75327300  1
  C  C18  1  0.18403900  0.78602600  0.92168100  1
  C  C19  1  0.68403900  0.21397400  0.07831900  1
  C  C20  1  0.81596100  0.21397400  0.07831900  1
  C  C21  1  0.31596100  0.78602600  0.92168100  1
  C  C22  1  0.28426500  0.02824000  0.64759700  1
  C  C23  1  0.78426500  0.97176000  0.35240300  1
  C  C24  1  0.71573500  0.97176000  0.35240300  1
  C  C25  1  0.21573500  0.02824000  0.64759700  1
  C  C26  1  0.04953500  0.20017200  0.29876100  1
  C  C27  1  0.54953500  0.79982800  0.70123900  1
  C  C28  1  0.95046500  0.79982800  0.70123900  1
  C  C29  1  0.45046500  0.20017200  0.29876100  1
  Ni  Ni30  1  0.86956700  0.69405200  0.21489000  1
  Ni  Ni31  1  0.36956700  0.30594800  0.78511000  1
  Ni  Ni32  1  0.13043300  0.30594800  0.78511000  1
  Ni  Ni33  1  0.63043300  0.69405200  0.21489000  1
  Ni  Ni34  1  0.53579400  0.20852000  0.32202400  1
  Ni  Ni35  1  0.03579400  0.79148000  0.67797600  1
  Ni  Ni36  1  0.46420600  0.79148000  0.67797600  1
  Ni  Ni37  1  0.96420600  0.20852000  0.32202400  1
  Cu  Cu38  1  0.07567600  0.92519000  0.59449800  1
  Cu  Cu39  1  0.57567600  0.07481000  0.40550200  1
  Cu  Cu40  1  0.92432400  0.07481000  0.40550200  1
  Cu  Cu41  1  0.42432400  0.92519000  0.59449800  1
  Cu  Cu42  1  0.75000000  0.01082600  0.60740400  1
  Cu  Cu43  1  0.25000000  0.98917400  0.39259600  1
  Cu  Cu44  1  0.75000000  0.54210300  0.45521400  1
  Cu  Cu45  1  0.25000000  0.45789700  0.54478600  1
  Cu  Cu46  1  0.88232200  0.61448200  0.10082500  1
  Cu  Cu47  1  0.38232200  0.38551800  0.89917500  1
  Cu  Cu48  1  0.11767800  0.38551800  0.89917500  1
  Cu  Cu49  1  0.61767800  0.61448200  0.10082500  1
  Cu  Cu50  1  0.25000000  0.47209000  0.19624900  1
  Cu  Cu51  1  0.75000000  0.52791000  0.80375100  1
  Cu  Cu52  1  0.25000000  0.85053900  0.88068300  1
  Cu  Cu53  1  0.75000000  0.14946100  0.11931700  1
