# generated using pymatgen
data_Cu8Ni6C19
_symmetry_space_group_name_H-M   'P 1'
_cell_length_a   8.06584400
_cell_length_b   9.90356005
_cell_length_c   12.03725730
_cell_angle_alpha   106.95825345
_cell_angle_beta   100.27165995
_cell_angle_gamma   88.49023080
_symmetry_Int_Tables_number   1
_chemical_formula_structural   Cu8Ni6C19
_chemical_formula_sum   'Cu16 Ni12 C38'
_cell_volume   904.65601432
_cell_formula_units_Z   2
loop_
 _symmetry_equiv_pos_site_id
 _symmetry_equiv_pos_as_xyz
  1  'x, y, z'
loop_
 _atom_site_type_symbol
 _atom_site_label
 _atom_site_symmetry_multiplicity
 _atom_site_fract_x
 _atom_site_fract_y
 _atom_site_fract_z
 _atom_site_occupancy
  C  C0  1  0.47303900  0.66444800  0.91541400  1
  C  C1  1  0.52696100  0.33555200  0.08458600  1
  C  C2  1  0.39059900  0.18331200  0.57012800  1
  C  C3  1  0.60940100  0.81668800  0.42987200  1
  C  C4  1  0.89545900  0.18680300  0.57487500  1
  C  C5  1  0.10454100  0.81319700  0.42512500  1
  C  C6  1  0.82168800  0.43930100  0.00745800  1
  C  C7  1  0.17831200  0.56069900  0.99254200  1
  C  C8  1  0.68200900  0.40824500  0.89445100  1
  C  C9  1  0.31799100  0.59175500  0.10554900  1
  C  C10  1  0.35112200  0.85335400  0.14659900  1
  C  C11  1  0.64887800  0.14664600  0.85340100  1
  C  C12  1  0.19100800  0.84836300  0.05271200  1
  C  C13  1  0.80899200  0.15163700  0.94728800  1
  C  C14  1  0.78597400  0.79657700  0.12018200  1
  C  C15  1  0.21402600  0.20342300  0.87981800  1
  C  C16  1  0.81329100  0.88585100  0.03724400  1
  C  C17  1  0.18670900  0.11414900  0.96275600  1
  C  C18  1  0.78021900  0.60174000  0.77587000  1
  C  C19  1  0.21978100  0.39826000  0.22413000  1
  C  C20  1  0.62810200  0.54889700  0.67444600  1
  C  C21  1  0.37189800  0.45110300  0.32555400  1
  C  C22  1  0.18658400  0.52321800  0.67762300  1
  C  C23  1  0.81341600  0.47678200  0.32237700  1
  C  C24  1  0.25542200  0.66974700  0.68216600  1
  C  C25  1  0.74457800  0.33025300  0.31783400  1
  C  C26  1  0.52136300  0.85282000  0.75163200  1
  C  C27  1  0.47863700  0.14718000  0.24836800  1
  C  C28  1  0.37984000  0.94260100  0.80645100  1
  C  C29  1  0.62016000  0.05739900  0.19354900  1
  C  C30  1  0.08212300  0.37554700  0.03923700  1
  C  C31  1  0.91787700  0.62445300  0.96076300  1
  C  C32  1  0.99914300  0.46226900  0.14430500  1
  C  C33  1  0.00085700  0.53773100  0.85569500  1
  C  C34  1  0.96132300  0.16645700  0.19367700  1
  C  C35  1  0.03867700  0.83354300  0.80632300  1
  C  C36  1  0.14567700  0.13867800  0.18731300  1
  C  C37  1  0.85432300  0.86132200  0.81268700  1
  Ni  Ni38  1  0.35050700  0.98109800  0.36472100  1
  Ni  Ni39  1  0.64949300  0.01890200  0.63527900  1
  Ni  Ni40  1  0.83203400  0.98911500  0.37599100  1
  Ni  Ni41  1  0.16796600  0.01088500  0.62400900  1
  Ni  Ni42  1  0.12453800  0.32380700  0.51468500  1
  Ni  Ni43  1  0.87546200  0.67619300  0.48531500  1
  Ni  Ni44  1  0.42962700  0.33514900  0.78993200  1
  Ni  Ni45  1  0.57037300  0.66485100  0.21006800  1
  Ni  Ni46  1  0.62433200  0.32902900  0.51932100  1
  Ni  Ni47  1  0.37566800  0.67097100  0.48067900  1
  Ni  Ni48  1  0.96241900  0.31759900  0.79126600  1
  Ni  Ni49  1  0.03758100  0.68240100  0.20873400  1
  Cu  Cu50  1  0.71252100  0.47495100  0.97471700  1
  Cu  Cu51  1  0.28747900  0.52504900  0.02528300  1
  Cu  Cu52  1  0.31351300  0.84373200  0.06233300  1
  Cu  Cu53  1  0.68648700  0.15626800  0.93766700  1
  Cu  Cu54  1  0.73068000  0.82497300  0.05123000  1
  Cu  Cu55  1  0.26932000  0.17502700  0.94877000  1
  Cu  Cu56  1  0.66173600  0.62008900  0.75156900  1
  Cu  Cu57  1  0.33826400  0.37991100  0.24843100  1
  Cu  Cu58  1  0.22553700  0.61664000  0.73256700  1
  Cu  Cu59  1  0.77446300  0.38336000  0.26743300  1
  Cu  Cu60  1  0.44666300  0.85921800  0.80830300  1
  Cu  Cu61  1  0.55333700  0.14078200  0.19169700  1
  Cu  Cu62  1  0.99441300  0.36869800  0.08423900  1
  Cu  Cu63  1  0.00558700  0.63130200  0.91576100  1
  Cu  Cu64  1  0.03418000  0.09421700  0.15560300  1
  Cu  Cu65  1  0.96582000  0.90578300  0.84439700  1
