# generated using pymatgen
data_Cu(NiC4)3
_symmetry_space_group_name_H-M   'P 1'
_cell_length_a   7.31256842
_cell_length_b   7.31256842
_cell_length_c   9.59376695
_cell_angle_alpha   72.13366931
_cell_angle_beta   72.13366931
_cell_angle_gamma   68.63362093
_symmetry_Int_Tables_number   1
_chemical_formula_structural   Cu(NiC4)3
_chemical_formula_sum   'Cu2 Ni6 C24'
_cell_volume   443.57127880
_cell_formula_units_Z   2
loop_
 _symmetry_equiv_pos_site_id
 _symmetry_equiv_pos_as_xyz
  1  'x, y, z'
loop_
 _atom_site_type_symbol
 _atom_site_label
 _atom_site_symmetry_multiplicity
 _atom_site_fract_x
 _atom_site_fract_y
 _atom_site_fract_z
 _atom_site_occupancy
  C  C0  1  0.42410300  0.57589700  0.75000000  1
  C  C1  1  0.57589700  0.42410300  0.25000000  1
  C  C2  1  0.00000000  0.50000000  0.50000000  1
  C  C3  1  0.50000000  0.00000000  0.00000000  1
  Ni  Ni4  1  0.86261000  0.71778000  0.79636800  1
  Ni  Ni5  1  0.71778000  0.86261000  0.29636800  1
  Ni  Ni6  1  0.86807000  0.13193000  0.75000000  1
  Ni  Ni7  1  0.13193000  0.86807000  0.25000000  1
  Ni  Ni8  1  0.28222000  0.13739000  0.70363200  1
  Ni  Ni9  1  0.13739000  0.28222000  0.20363200  1
  Cu  Cu10  1  0.00000000  0.50000000  0.00000000  1
  Cu  Cu11  1  0.50000000  0.00000000  0.50000000  1
  C  C12  1  0.90243400  0.93006400  0.70019800  1
  C  C13  1  0.93006400  0.90243400  0.20019800  1
  C  C14  1  0.65876500  0.76104200  0.90690600  1
  C  C15  1  0.85489700  0.61975800  0.68098300  1
  C  C16  1  0.39510700  0.95907300  0.62458300  1
  C  C17  1  0.76104200  0.65876500  0.40690600  1
  C  C18  1  0.61975800  0.85489700  0.18098300  1
  C  C19  1  0.84137300  0.29517700  0.61067700  1
  C  C20  1  0.95907300  0.39510700  0.12458300  1
  C  C21  1  0.70482300  0.15862700  0.88932300  1
  C  C22  1  0.29517700  0.84137300  0.11067700  1
  C  C23  1  0.04092700  0.60489300  0.87541700  1
  C  C24  1  0.15862700  0.70482300  0.38932300  1
  C  C25  1  0.38024200  0.14510300  0.81901700  1
  C  C26  1  0.23895800  0.34123500  0.59309400  1
  C  C27  1  0.60489300  0.04092700  0.37541700  1
  C  C28  1  0.14510300  0.38024200  0.31901700  1
  C  C29  1  0.34123500  0.23895800  0.09309400  1
  C  C30  1  0.06993600  0.09756600  0.79980200  1
  C  C31  1  0.09756600  0.06993600  0.29980200  1
