# generated using pymatgen
data_Cu(NiC3)2
_symmetry_space_group_name_H-M   'P 1'
_cell_length_a   14.59062756
_cell_length_b   14.59062756
_cell_length_c   7.87813800
_cell_angle_alpha   90.00000000
_cell_angle_beta   90.00000000
_cell_angle_gamma   119.99999802
_symmetry_Int_Tables_number   1
_chemical_formula_structural   Cu(NiC3)2
_chemical_formula_sum   'Cu3 Ni6 C18'
_cell_volume   1452.45326828
_cell_formula_units_Z   3
loop_
 _symmetry_equiv_pos_site_id
 _symmetry_equiv_pos_as_xyz
  1  'x, y, z'
loop_
 _atom_site_type_symbol
 _atom_site_label
 _atom_site_symmetry_multiplicity
 _atom_site_fract_x
 _atom_site_fract_y
 _atom_site_fract_z
 _atom_site_occupancy
  Ni  Ni0  1  0.00000000  0.63887700  0.00000000  1
  Ni  Ni1  1  0.00000000  0.30514000  0.50000000  1
  Ni  Ni2  1  0.36112300  0.36112300  0.00000000  1
  Ni  Ni3  1  0.30514000  0.00000000  0.50000000  1
  Ni  Ni4  1  0.69486000  0.69486000  0.50000000  1
  Ni  Ni5  1  0.63887700  0.00000000  0.00000000  1
  Cu  Cu6  1  0.33333300  0.66666700  0.49478900  1
  Cu  Cu7  1  0.00000000  0.00000000  0.00000000  1
  Cu  Cu8  1  0.66666700  0.33333300  0.50521100  1
  C  C9  1  0.08474300  0.87049900  0.76174900  1
  C  C10  1  0.22826900  0.77524600  0.25171800  1
  C  C11  1  0.12230600  0.53747300  0.74084500  1
  C  C12  1  0.41516700  0.87769400  0.74084500  1
  C  C13  1  0.22475400  0.45302300  0.25171800  1
  C  C14  1  0.12950100  0.21424400  0.76174900  1
  C  C15  1  0.54697700  0.77173100  0.25171800  1
  C  C16  1  0.21424400  0.12950100  0.23825100  1
  C  C17  1  0.46252700  0.58483300  0.74084500  1
  C  C18  1  0.78575600  0.91525700  0.76174900  1
  C  C19  1  0.45302300  0.22475400  0.74828200  1
  C  C20  1  0.58483300  0.46252700  0.25915500  1
  C  C21  1  0.53747300  0.12230600  0.25915500  1
  C  C22  1  0.77173100  0.54697700  0.74828200  1
  C  C23  1  0.91525700  0.78575600  0.23825100  1
  C  C24  1  0.77524600  0.22826900  0.74828200  1
  C  C25  1  0.87769400  0.41516700  0.25915500  1
  C  C26  1  0.87049900  0.08474300  0.23825100  1
