# generated using pymatgen
data_Cu4NiC
_symmetry_space_group_name_H-M   'P 1'
_cell_length_a   8.70426708
_cell_length_b   8.70426708
_cell_length_c   8.70426715
_cell_angle_alpha   59.72724735
_cell_angle_beta   59.72724735
_cell_angle_gamma   59.72724911
_symmetry_Int_Tables_number   1
_chemical_formula_structural   Cu4NiC
_chemical_formula_sum   'Cu24 Ni6 C6'
_cell_volume   463.42881046
_cell_formula_units_Z   6
loop_
 _symmetry_equiv_pos_site_id
 _symmetry_equiv_pos_as_xyz
  1  'x, y, z'
loop_
 _atom_site_type_symbol
 _atom_site_label
 _atom_site_symmetry_multiplicity
 _atom_site_fract_x
 _atom_site_fract_y
 _atom_site_fract_z
 _atom_site_occupancy
  C  C0  1  0.00000000  0.00000000  0.00000000  1
  C  C1  1  0.50000000  0.50000000  0.50000000  1
  C  C2  1  0.35565800  0.35565800  0.35565800  1
  C  C3  1  0.14434200  0.14434200  0.14434200  1
  C  C4  1  0.64434200  0.64434200  0.64434200  1
  C  C5  1  0.85565800  0.85565800  0.85565800  1
  Ni  Ni6  1  0.75000000  0.04506700  0.45493300  1
  Ni  Ni7  1  0.95493300  0.54506700  0.25000000  1
  Ni  Ni8  1  0.54506700  0.25000000  0.95493300  1
  Ni  Ni9  1  0.45493300  0.75000000  0.04506700  1
  Ni  Ni10  1  0.04506700  0.45493300  0.75000000  1
  Ni  Ni11  1  0.25000000  0.95493300  0.54506700  1
  Cu  Cu12  1  0.90824800  0.05975300  0.27023400  1
  Cu  Cu13  1  0.72976600  0.09175200  0.94024700  1
  Cu  Cu14  1  0.89391700  0.49447200  0.69028000  1
  Cu  Cu15  1  0.00552800  0.60608300  0.80972000  1
  Cu  Cu16  1  0.59175200  0.22976600  0.44024700  1
  Cu  Cu17  1  0.77023400  0.55975300  0.40824800  1
  Cu  Cu18  1  0.94024700  0.72976600  0.09175200  1
  Cu  Cu19  1  0.19028000  0.99447200  0.39391700  1
  Cu  Cu20  1  0.50552800  0.30972000  0.10608300  1
  Cu  Cu21  1  0.30972000  0.10608300  0.50552800  1
  Cu  Cu22  1  0.39391700  0.19028000  0.99447200  1
  Cu  Cu23  1  0.55975300  0.40824800  0.77023400  1
  Cu  Cu24  1  0.44024700  0.59175200  0.22976600  1
  Cu  Cu25  1  0.69028000  0.89391700  0.49447200  1
  Cu  Cu26  1  0.60608300  0.80972000  0.00552800  1
  Cu  Cu27  1  0.80972000  0.00552800  0.60608300  1
  Cu  Cu28  1  0.49447200  0.69028000  0.89391700  1
  Cu  Cu29  1  0.05975300  0.27023400  0.90824800  1
  Cu  Cu30  1  0.22976600  0.44024700  0.59175200  1
  Cu  Cu31  1  0.40824800  0.77023400  0.55975300  1
  Cu  Cu32  1  0.10608300  0.50552800  0.30972000  1
  Cu  Cu33  1  0.99447200  0.39391700  0.19028000  1
  Cu  Cu34  1  0.27023400  0.90824800  0.05975300  1
  Cu  Cu35  1  0.09175200  0.94024700  0.72976600  1
