# generated using pymatgen
data_Cu4Ni11C12
_symmetry_space_group_name_H-M   'P 1'
_cell_length_a   10.78899100
_cell_length_b   5.53061400
_cell_length_c   9.58467900
_cell_angle_alpha   74.44926832
_cell_angle_beta   90.00000000
_cell_angle_gamma   90.00000000
_symmetry_Int_Tables_number   1
_chemical_formula_structural   Cu4Ni11C12
_chemical_formula_sum   'Cu8 Ni22 C24'
_cell_volume   550.97950272
_cell_formula_units_Z   2
loop_
 _symmetry_equiv_pos_site_id
 _symmetry_equiv_pos_as_xyz
  1  'x, y, z'
loop_
 _atom_site_type_symbol
 _atom_site_label
 _atom_site_symmetry_multiplicity
 _atom_site_fract_x
 _atom_site_fract_y
 _atom_site_fract_z
 _atom_site_occupancy
  C  C0  1  0.25000000  0.79301300  0.68647900  1
  C  C1  1  0.75000000  0.20698700  0.31352100  1
  C  C2  1  0.91592400  0.76160300  0.14342900  1
  C  C3  1  0.41592400  0.23839700  0.85657100  1
  C  C4  1  0.08407600  0.23839700  0.85657100  1
  C  C5  1  0.58407600  0.76160300  0.14342900  1
  C  C6  1  0.09460700  0.22846300  0.25806400  1
  C  C7  1  0.59460700  0.77153700  0.74193600  1
  C  C8  1  0.90539300  0.77153700  0.74193600  1
  C  C9  1  0.40539300  0.22846300  0.25806400  1
  C  C10  1  0.25000000  0.62760700  0.04395000  1
  C  C11  1  0.75000000  0.37239300  0.95605000  1
  C  C12  1  0.25000000  0.35833000  0.50863200  1
  C  C13  1  0.75000000  0.64167000  0.49136800  1
  C  C14  1  0.25000000  0.01854500  0.15200300  1
  C  C15  1  0.75000000  0.98145500  0.84799700  1
  C  C16  1  0.51880300  0.82724600  0.43692000  1
  C  C17  1  0.01880300  0.17275400  0.56308000  1
  C  C18  1  0.48119700  0.17275400  0.56308000  1
  C  C19  1  0.98119700  0.82724600  0.43692000  1
  C  C20  1  0.37836500  0.77387600  0.39141000  1
  C  C21  1  0.87836500  0.22612400  0.60859000  1
  C  C22  1  0.62163500  0.22612400  0.60859000  1
  C  C23  1  0.12163500  0.77387600  0.39141000  1
  Ni  Ni24  1  0.25000000  0.91271800  0.97208800  1
  Ni  Ni25  1  0.75000000  0.08728200  0.02791200  1
  Ni  Ni26  1  0.25000000  0.10158300  0.23136200  1
  Ni  Ni27  1  0.75000000  0.89841700  0.76863800  1
  Ni  Ni28  1  0.25000000  0.23788200  0.67496200  1
  Ni  Ni29  1  0.75000000  0.76211800  0.32503800  1
  Ni  Ni30  1  0.25000000  0.64587700  0.47036900  1
  Ni  Ni31  1  0.75000000  0.35412300  0.52963100  1
  Ni  Ni32  1  0.25000000  0.47600900  0.92899200  1
  Ni  Ni33  1  0.75000000  0.52399100  0.07100800  1
  Ni  Ni34  1  0.45783100  0.86979100  0.35433300  1
  Ni  Ni35  1  0.95783100  0.13020900  0.64566700  1
  Ni  Ni36  1  0.54216900  0.13020900  0.64566700  1
  Ni  Ni37  1  0.04216900  0.86979100  0.35433300  1
  Ni  Ni38  1  0.36670100  0.26106700  0.44404200  1
  Ni  Ni39  1  0.86670100  0.73893300  0.55595800  1
  Ni  Ni40  1  0.63329900  0.73893300  0.55595800  1
  Ni  Ni41  1  0.13329900  0.26106700  0.44404200  1
  Ni  Ni42  1  0.36768800  0.55726500  0.14365900  1
  Ni  Ni43  1  0.86768800  0.44273500  0.85634100  1
  Ni  Ni44  1  0.63231200  0.44273500  0.85634100  1
  Ni  Ni45  1  0.13231200  0.55726500  0.14365900  1
  Cu  Cu46  1  0.46661000  0.14227800  0.09615900  1
  Cu  Cu47  1  0.96661000  0.85772200  0.90384100  1
  Cu  Cu48  1  0.53339000  0.85772200  0.90384100  1
  Cu  Cu49  1  0.03339000  0.14227800  0.09615900  1
  Cu  Cu50  1  0.44206100  0.65558100  0.71680800  1
  Cu  Cu51  1  0.94206100  0.34441900  0.28319200  1
  Cu  Cu52  1  0.55793900  0.34441900  0.28319200  1
  Cu  Cu53  1  0.05793900  0.65558100  0.71680800  1
