# generated using pymatgen
data_CuNiC8
_symmetry_space_group_name_H-M   'P 1'
_cell_length_a   4.95279700
_cell_length_b   5.48226100
_cell_length_c   15.73724000
_cell_angle_alpha   90.00000000
_cell_angle_beta   90.00000000
_cell_angle_gamma   90.00000000
_symmetry_Int_Tables_number   1
_chemical_formula_structural   CuNiC8
_chemical_formula_sum   'Cu4 Ni4 C32'
_cell_volume   427.30581566
_cell_formula_units_Z   4
loop_
 _symmetry_equiv_pos_site_id
 _symmetry_equiv_pos_as_xyz
  1  'x, y, z'
loop_
 _atom_site_type_symbol
 _atom_site_label
 _atom_site_symmetry_multiplicity
 _atom_site_fract_x
 _atom_site_fract_y
 _atom_site_fract_z
 _atom_site_occupancy
  C  C0  1  0.99872300  0.16815800  0.09318800  1
  C  C1  1  0.99872300  0.66815800  0.40681200  1
  C  C2  1  0.50141100  0.83671100  0.49512500  1
  C  C3  1  0.50141100  0.33671100  0.00487500  1
  C  C4  1  0.50507900  0.82975200  0.30375400  1
  C  C5  1  0.50507900  0.32975200  0.19624600  1
  C  C6  1  0.49872300  0.83184200  0.90681200  1
  C  C7  1  0.49872300  0.33184200  0.59318800  1
  C  C8  1  0.00141100  0.16328900  0.50487500  1
  C  C9  1  0.00141100  0.66328900  0.99512500  1
  C  C10  1  0.00507900  0.67024800  0.80375400  1
  C  C11  1  0.00507900  0.17024800  0.69624600  1
  Ni  Ni12  1  0.99992700  0.67747000  0.19957600  1
  Ni  Ni13  1  0.99992700  0.17747000  0.30042400  1
  Ni  Ni14  1  0.49992700  0.82253000  0.69957600  1
  Ni  Ni15  1  0.49992700  0.32253000  0.80042400  1
  Cu  Cu16  1  0.00759900  0.66253000  0.59821200  1
  Cu  Cu17  1  0.00759900  0.16253000  0.90178800  1
  Cu  Cu18  1  0.50759900  0.83747000  0.09821200  1
  Cu  Cu19  1  0.50759900  0.33747000  0.40178800  1
  C  C20  1  0.09219900  0.84974400  0.29766400  1
  C  C21  1  0.09219900  0.34974400  0.20233600  1
  C  C22  1  0.10232500  0.87890300  0.89834000  1
  C  C23  1  0.10232500  0.37890300  0.60166000  1
  C  C24  1  0.10370600  0.81407900  0.51503100  1
  C  C25  1  0.10370600  0.31407900  0.98496900  1
  C  C26  1  0.11637900  0.80710700  0.68751600  1
  C  C27  1  0.11637900  0.30710700  0.81248400  1
  C  C28  1  0.16765400  0.82586600  0.10582100  1
  C  C29  1  0.16765400  0.32586600  0.39417900  1
  C  C30  1  0.59219900  0.15025600  0.70233600  1
  C  C31  1  0.59219900  0.65025600  0.79766400  1
  C  C32  1  0.60232500  0.12109700  0.10166000  1
  C  C33  1  0.60232500  0.62109700  0.39834000  1
  C  C34  1  0.60370600  0.68592100  0.01503100  1
  C  C35  1  0.60370600  0.18592100  0.48496900  1
  C  C36  1  0.61637900  0.69289300  0.18751600  1
  C  C37  1  0.61637900  0.19289300  0.31248400  1
  C  C38  1  0.66765400  0.67413400  0.60582100  1
  C  C39  1  0.66765400  0.17413400  0.89417900  1
