# generated using pymatgen
data_Cu14Ni2C13
_symmetry_space_group_name_H-M   'P 1'
_cell_length_a   7.76348939
_cell_length_b   7.76348939
_cell_length_c   11.53909500
_cell_angle_alpha   90.00000000
_cell_angle_beta   90.00000000
_cell_angle_gamma   117.19766112
_symmetry_Int_Tables_number   1
_chemical_formula_structural   Cu14Ni2C13
_chemical_formula_sum   'Cu28 Ni4 C26'
_cell_volume   618.58574463
_cell_formula_units_Z   2
loop_
 _symmetry_equiv_pos_site_id
 _symmetry_equiv_pos_as_xyz
  1  'x, y, z'
loop_
 _atom_site_type_symbol
 _atom_site_label
 _atom_site_symmetry_multiplicity
 _atom_site_fract_x
 _atom_site_fract_y
 _atom_site_fract_z
 _atom_site_occupancy
  C  C0  1  0.87206800  0.87206800  0.74960900  1
  C  C1  1  0.12793200  0.12793200  0.24960900  1
  C  C2  1  0.59960300  0.05020700  0.68339700  1
  C  C3  1  0.05020700  0.59960300  0.68339700  1
  C  C4  1  0.40039700  0.94979300  0.18339700  1
  C  C5  1  0.94979300  0.40039700  0.18339700  1
  C  C6  1  0.70119100  0.15237100  0.80588500  1
  C  C7  1  0.15237100  0.70119100  0.80588500  1
  C  C8  1  0.29880900  0.84762900  0.30588500  1
  C  C9  1  0.84762900  0.29880900  0.30588500  1
  C  C10  1  0.57144600  0.29971500  0.91764900  1
  C  C11  1  0.29971500  0.57144600  0.91764900  1
  C  C12  1  0.42855400  0.70028500  0.41764900  1
  C  C13  1  0.70028500  0.42855400  0.41764900  1
  C  C14  1  0.38129300  0.78609100  0.96483800  1
  C  C15  1  0.78609100  0.38129300  0.96483800  1
  C  C16  1  0.61870700  0.21390900  0.46483800  1
  C  C17  1  0.21390900  0.61870700  0.46483800  1
  C  C18  1  0.37232600  0.10467500  0.58842200  1
  C  C19  1  0.10467500  0.37232600  0.58842200  1
  C  C20  1  0.62767400  0.89532500  0.08842200  1
  C  C21  1  0.89532500  0.62767400  0.08842200  1
  C  C22  1  0.38681100  0.92438900  0.52934500  1
  C  C23  1  0.92438900  0.38681100  0.52934500  1
  C  C24  1  0.61318900  0.07561100  0.02934500  1
  C  C25  1  0.07561100  0.61318900  0.02934500  1
  Ni  Ni26  1  0.52805500  0.52805500  0.65912000  1
  Ni  Ni27  1  0.47194500  0.47194500  0.15912000  1
  Ni  Ni28  1  0.20741800  0.20741800  0.85907800  1
  Ni  Ni29  1  0.79258200  0.79258200  0.35907800  1
  Cu  Cu30  1  0.38215200  0.38215200  0.62667900  1
  Cu  Cu31  1  0.61784800  0.61784800  0.12667900  1
  Cu  Cu32  1  0.34853200  0.34853200  0.90324900  1
  Cu  Cu33  1  0.65146800  0.65146800  0.40324900  1
  Cu  Cu34  1  0.52680800  0.69039400  0.67722400  1
  Cu  Cu35  1  0.69039400  0.52680800  0.67722400  1
  Cu  Cu36  1  0.47319200  0.30960600  0.17722400  1
  Cu  Cu37  1  0.30960600  0.47319200  0.17722400  1
  Cu  Cu38  1  0.21453300  0.05081800  0.83452200  1
  Cu  Cu39  1  0.05081800  0.21453300  0.83452200  1
  Cu  Cu40  1  0.78546700  0.94918200  0.33452200  1
  Cu  Cu41  1  0.94918200  0.78546700  0.33452200  1
  Cu  Cu42  1  0.95851100  0.95851100  0.60557800  1
  Cu  Cu43  1  0.04148900  0.04148900  0.10557800  1
  Cu  Cu44  1  0.78646600  0.78646600  0.89402900  1
  Cu  Cu45  1  0.21353400  0.21353400  0.39402900  1
  Cu  Cu46  1  0.69701100  0.06060500  0.74373500  1
  Cu  Cu47  1  0.06060500  0.69701100  0.74373500  1
  Cu  Cu48  1  0.30298900  0.93939500  0.24373500  1
  Cu  Cu49  1  0.93939500  0.30298900  0.24373500  1
  Cu  Cu50  1  0.67961400  0.26767500  0.92630300  1
  Cu  Cu51  1  0.26767500  0.67961400  0.92630300  1
  Cu  Cu52  1  0.32038600  0.73232500  0.42630300  1
  Cu  Cu53  1  0.73232500  0.32038600  0.42630300  1
  Cu  Cu54  1  0.46010200  0.04913400  0.57131000  1
  Cu  Cu55  1  0.04913400  0.46010200  0.57131000  1
  Cu  Cu56  1  0.53989800  0.95086600  0.07131000  1
  Cu  Cu57  1  0.95086600  0.53989800  0.07131000  1
