# generated using pymatgen
data_Cu(NiC5)2
_symmetry_space_group_name_H-M   'P 1'
_cell_length_a   7.62914702
_cell_length_b   7.62914702
_cell_length_c   7.62914737
_cell_angle_alpha   42.48375946
_cell_angle_beta   42.48375946
_cell_angle_gamma   42.48375423
_symmetry_Int_Tables_number   1
_chemical_formula_structural   Cu(NiC5)2
_chemical_formula_sum   'Cu1 Ni2 C10'
_cell_volume   183.39647628
_cell_formula_units_Z   1
loop_
 _symmetry_equiv_pos_site_id
 _symmetry_equiv_pos_as_xyz
  1  'x, y, z'
loop_
 _atom_site_type_symbol
 _atom_site_label
 _atom_site_symmetry_multiplicity
 _atom_site_fract_x
 _atom_site_fract_y
 _atom_site_fract_z
 _atom_site_occupancy
  C  C0  1  0.20322900  0.20322900  0.20322900  1
  C  C1  1  0.79677100  0.79677100  0.79677100  1
  Ni  Ni2  1  0.59820700  0.59820700  0.59820700  1
  Ni  Ni3  1  0.40179300  0.40179300  0.40179300  1
  Cu  Cu4  1  0.00000000  0.00000000  0.00000000  1
  C  C5  1  0.72828600  0.26247200  0.72828600  1
  C  C6  1  0.26247200  0.72828600  0.72828600  1
  C  C7  1  0.72828600  0.72828600  0.26247200  1
  C  C8  1  0.32744400  0.32744400  0.32744400  1
  C  C9  1  0.67255600  0.67255600  0.67255600  1
  C  C10  1  0.73752800  0.27171400  0.27171400  1
  C  C11  1  0.27171400  0.27171400  0.73752800  1
  C  C12  1  0.27171400  0.73752800  0.27171400  1
