# generated using pymatgen
data_CuNiC
_symmetry_space_group_name_H-M   'P 1'
_cell_length_a   14.22878627
_cell_length_b   9.48969511
_cell_length_c   3.09614500
_cell_angle_alpha   90.00000000
_cell_angle_beta   90.00000000
_cell_angle_gamma   90.33745134
_symmetry_Int_Tables_number   1
_chemical_formula_structural   CuNiC
_chemical_formula_sum   'Cu12 Ni12 C12'
_cell_volume   418.05543553
_cell_formula_units_Z   12
loop_
 _symmetry_equiv_pos_site_id
 _symmetry_equiv_pos_as_xyz
  1  'x, y, z'
loop_
 _atom_site_type_symbol
 _atom_site_label
 _atom_site_symmetry_multiplicity
 _atom_site_fract_x
 _atom_site_fract_y
 _atom_site_fract_z
 _atom_site_occupancy
  C  C0  1  0.00843000  0.98932300  0.00000000  1
  C  C1  1  0.00604800  0.50342100  0.00000000  1
  C  C2  1  0.16637600  0.27884800  0.50000000  1
  C  C3  1  0.15267900  0.74722500  0.50000000  1
  C  C4  1  0.34290900  0.99583000  0.00000000  1
  C  C5  1  0.33505700  0.48735500  0.00000000  1
  C  C6  1  0.50428700  0.77479800  0.50000000  1
  C  C7  1  0.48203200  0.25275300  0.50000000  1
  C  C8  1  0.66918300  0.99864800  0.00000000  1
  C  C9  1  0.67874600  0.49660000  0.00000000  1
  C  C10  1  0.81869600  0.24321900  0.50000000  1
  C  C11  1  0.83592300  0.71674300  0.50000000  1
  Ni  Ni12  1  0.06087400  0.39730500  0.50000000  1
  Ni  Ni13  1  0.06555800  0.90518600  0.50000000  1
  Ni  Ni14  1  0.10522300  0.65347200  0.00000000  1
  Ni  Ni15  1  0.23347000  0.35081600  0.00000000  1
  Ni  Ni16  1  0.40138800  0.41392100  0.50000000  1
  Ni  Ni17  1  0.39633100  0.90046100  0.50000000  1
  Ni  Ni18  1  0.43332300  0.15433000  0.00000000  1
  Ni  Ni19  1  0.57134600  0.85386600  0.00000000  1
  Ni  Ni20  1  0.73055300  0.40042200  0.50000000  1
  Ni  Ni21  1  0.76643700  0.14226600  0.00000000  1
  Ni  Ni22  1  0.76347300  0.65765700  0.00000000  1
  Ni  Ni23  1  0.93606600  0.59262900  0.50000000  1
  Cu  Cu24  1  0.10013600  0.15239000  0.00000000  1
  Cu  Cu25  1  0.23149300  0.85203100  0.00000000  1
  Cu  Cu26  1  0.26324500  0.09388500  0.50000000  1
  Cu  Cu27  1  0.27304600  0.60751100  0.50000000  1
  Cu  Cu28  1  0.43824100  0.65891800  0.00000000  1
  Cu  Cu29  1  0.56495000  0.34661700  0.00000000  1
  Cu  Cu30  1  0.60361700  0.10026900  0.50000000  1
  Cu  Cu31  1  0.59726100  0.59462600  0.50000000  1
  Cu  Cu32  1  0.73535800  0.90422800  0.50000000  1
  Cu  Cu33  1  0.89469100  0.33351000  0.00000000  1
  Cu  Cu34  1  0.89735200  0.85209000  0.00000000  1
  Cu  Cu35  1  0.93620400  0.09683300  0.50000000  1
