# generated using pymatgen
data_Cu(NiC26)2
_symmetry_space_group_name_H-M   'P 1'
_cell_length_a   5.50518400
_cell_length_b   11.84451156
_cell_length_c   12.10134437
_cell_angle_alpha   112.85074194
_cell_angle_beta   102.64859490
_cell_angle_gamma   94.79098464
_symmetry_Int_Tables_number   1
_chemical_formula_structural   Cu(NiC26)2
_chemical_formula_sum   'Cu1 Ni2 C52'
_cell_volume   696.93048648
_cell_formula_units_Z   1
loop_
 _symmetry_equiv_pos_site_id
 _symmetry_equiv_pos_as_xyz
  1  'x, y, z'
loop_
 _atom_site_type_symbol
 _atom_site_label
 _atom_site_symmetry_multiplicity
 _atom_site_fract_x
 _atom_site_fract_y
 _atom_site_fract_z
 _atom_site_occupancy
  Ni  Ni0  1  0.62739900  0.49110900  0.75773200  1
  Ni  Ni1  1  0.37260100  0.50889100  0.24226800  1
  Cu  Cu2  1  0.00000000  0.50000000  0.50000000  1
  C  C3  1  0.56996400  0.68361000  0.58275700  1
  C  C4  1  0.43003600  0.31639000  0.41724300  1
  C  C5  1  0.50000000  0.00000000  0.00000000  1
  C  C6  1  0.91663400  0.98126200  0.84836300  1
  C  C7  1  0.08336600  0.01873800  0.15163700  1
  C  C8  1  0.35682200  0.97737900  0.70475000  1
  C  C9  1  0.64317800  0.02262100  0.29525000  1
  C  C10  1  0.77485200  0.98459800  0.56824300  1
  C  C11  1  0.22514800  0.01540200  0.43175700  1
  C  C12  1  0.67981700  0.24105000  0.94746800  1
  C  C13  1  0.32018300  0.75895000  0.05253200  1
  C  C14  1  0.12061200  0.23645200  0.82176400  1
  C  C15  1  0.87938800  0.76354800  0.17823600  1
  C  C16  1  0.99200000  0.25689300  0.56677200  1
  C  C17  1  0.00800000  0.74310700  0.43322800  1
  C  C18  1  0.82397700  0.26591900  0.22015800  1
  C  C19  1  0.17602300  0.73408100  0.77984200  1
  C  C20  1  0.24065800  0.18576800  0.07800200  1
  C  C21  1  0.75934200  0.81423200  0.92199800  1
  C  C22  1  0.53907800  0.17849900  0.65299500  1
  C  C23  1  0.46092200  0.82150100  0.34700500  1
  C  C24  1  0.35503200  0.12253000  0.33554000  1
  C  C25  1  0.64496800  0.87747000  0.66446000  1
  C  C26  1  0.77025400  0.11512700  0.17833300  1
  C  C27  1  0.22974600  0.88487300  0.82166700  1
  C  C28  1  0.19612000  0.09541300  0.03534400  1
  C  C29  1  0.80388000  0.90458700  0.96465600  1
  C  C30  1  0.62181800  0.09010400  0.88883800  1
  C  C31  1  0.37818200  0.90989600  0.11116200  1
  C  C32  1  0.06611500  0.08443200  0.75714200  1
  C  C33  1  0.93388500  0.91556800  0.24285800  1
  C  C34  1  0.48623000  0.08845600  0.61341300  1
  C  C35  1  0.51377000  0.91154400  0.38658700  1
  C  C36  1  0.92438200  0.10608500  0.48302000  1
  C  C37  1  0.07561800  0.89391500  0.51698000  1
  C  C38  1  0.63725200  0.33282000  0.30342600  1
  C  C39  1  0.36274800  0.66718000  0.69657400  1
  C  C40  1  0.11637800  0.33060900  0.29637100  1
  C  C41  1  0.88362200  0.66939100  0.70362900  1
  C  C42  1  0.76309600  0.30434400  0.09965800  1
  C  C43  1  0.23690400  0.69565600  0.90034200  1
  C  C44  1  0.91892600  0.29208100  0.90481300  1
  C  C45  1  0.08107400  0.70791900  0.09518700  1
  C  C46  1  0.42013800  0.29451300  0.90665000  1
  C  C47  1  0.57986200  0.70548700  0.09335000  1
  C  C48  1  0.08105000  0.29475300  0.71876300  1
  C  C49  1  0.91895000  0.70524700  0.28123700  1
  C  C50  1  0.23113000  0.32334600  0.54042000  1
  C  C51  1  0.76887000  0.67665400  0.45958000  1
  C  C52  1  0.75425400  0.32527900  0.54604800  1
  C  C53  1  0.24574600  0.67472100  0.45395200  1
  C  C54  1  0.50000000  0.50000000  0.50000000  1
