# generated using pymatgen
data_Cu7Ni3C5
_symmetry_space_group_name_H-M   'P 1'
_cell_length_a   4.76925895
_cell_length_b   4.78355636
_cell_length_c   15.60001100
_cell_angle_alpha   90.00000000
_cell_angle_beta   90.00000000
_cell_angle_gamma   89.64720597
_symmetry_Int_Tables_number   1
_chemical_formula_structural   Cu7Ni3C5
_chemical_formula_sum   'Cu14 Ni6 C10'
_cell_volume   355.89220020
_cell_formula_units_Z   2
loop_
 _symmetry_equiv_pos_site_id
 _symmetry_equiv_pos_as_xyz
  1  'x, y, z'
loop_
 _atom_site_type_symbol
 _atom_site_label
 _atom_site_symmetry_multiplicity
 _atom_site_fract_x
 _atom_site_fract_y
 _atom_site_fract_z
 _atom_site_occupancy
  C  C0  1  0.96111400  0.95291700  0.00000000  1
  C  C1  1  0.02828200  0.01848500  0.20459200  1
  C  C2  1  0.02059700  0.97397600  0.39905600  1
  C  C3  1  0.02059700  0.97397600  0.60094400  1
  C  C4  1  0.02828200  0.01848500  0.79540800  1
  C  C5  1  0.49814500  0.48953600  0.09871700  1
  C  C6  1  0.48336800  0.52083100  0.50000000  1
  C  C7  1  0.46628900  0.51136000  0.29163900  1
  C  C8  1  0.46628900  0.51136000  0.70836100  1
  C  C9  1  0.49814500  0.48953600  0.90128300  1
  Ni  Ni10  1  0.20048400  0.80987500  0.30359000  1
  Ni  Ni11  1  0.18364200  0.80886600  0.50000000  1
  Ni  Ni12  1  0.20048400  0.80987500  0.69641000  1
  Ni  Ni13  1  0.32319700  0.31978200  0.19640200  1
  Ni  Ni14  1  0.32319700  0.31978200  0.80359800  1
  Ni  Ni15  1  0.67358200  0.65959500  0.00000000  1
  Cu  Cu16  1  0.20725000  0.79588600  0.10149000  1
  Cu  Cu17  1  0.20725000  0.79588600  0.89851000  1
  Cu  Cu18  1  0.28913000  0.28033000  0.00000000  1
  Cu  Cu19  1  0.30121300  0.30046300  0.39580600  1
  Cu  Cu20  1  0.30121300  0.30046300  0.60419400  1
  Cu  Cu21  1  0.70963400  0.70798700  0.19928600  1
  Cu  Cu22  1  0.69706000  0.69890200  0.39399800  1
  Cu  Cu23  1  0.69706000  0.69890200  0.60600200  1
  Cu  Cu24  1  0.70963400  0.70798700  0.80071400  1
  Cu  Cu25  1  0.80380200  0.19613500  0.10274000  1
  Cu  Cu26  1  0.79794900  0.19851100  0.50000000  1
  Cu  Cu27  1  0.79965500  0.21708600  0.30838700  1
  Cu  Cu28  1  0.80380200  0.19613500  0.89726000  1
  Cu  Cu29  1  0.79965500  0.21708600  0.69161300  1
