# generated using pymatgen
data_Cu2Ni3C23
_symmetry_space_group_name_H-M   'P 1'
_cell_length_a   6.09102300
_cell_length_b   6.09833252
_cell_length_c   9.66613387
_cell_angle_alpha   90.45819027
_cell_angle_beta   89.79176730
_cell_angle_gamma   119.89582756
_symmetry_Int_Tables_number   1
_chemical_formula_structural   Cu2Ni3C23
_chemical_formula_sum   'Cu2 Ni3 C23'
_cell_volume   311.26176983
_cell_formula_units_Z   1
loop_
 _symmetry_equiv_pos_site_id
 _symmetry_equiv_pos_as_xyz
  1  'x, y, z'
loop_
 _atom_site_type_symbol
 _atom_site_label
 _atom_site_symmetry_multiplicity
 _atom_site_fract_x
 _atom_site_fract_y
 _atom_site_fract_z
 _atom_site_occupancy
  C  C0  1  0.66765500  0.32463200  0.88881500  1
  C  C1  1  0.98774200  0.01426000  0.99225500  1
  C  C2  1  0.99000500  0.00631200  0.50068500  1
  C  C3  1  0.33456800  0.66587500  0.39703600  1
  Ni  Ni4  1  0.83045000  0.17071200  0.21562300  1
  Ni  Ni5  1  0.65983200  0.82818000  0.71418800  1
  Ni  Ni6  1  0.17042800  0.33724300  0.71260600  1
  Cu  Cu7  1  0.67633100  0.33625500  0.49342400  1
  Cu  Cu8  1  0.34050300  0.66153800  0.98808900  1
  C  C9  1  0.83160900  0.66161300  0.21391600  1
  C  C10  1  0.33914900  0.16908200  0.21411100  1
  C  C11  1  0.16899900  0.82812700  0.71441500  1
  C  C12  1  0.83536200  0.67424200  0.59629900  1
  C  C13  1  0.51836200  0.48316400  0.34586700  1
  C  C14  1  0.67128700  0.32879300  0.09835000  1
  C  C15  1  0.99544900  0.00566500  0.31563900  1
  C  C16  1  0.99776600  0.00698200  0.80900700  1
  C  C17  1  0.32418000  0.17508300  0.60064600  1
  C  C18  1  0.96324500  0.47748600  0.34226400  1
  C  C19  1  0.52402800  0.03866000  0.34365900  1
  C  C20  1  0.16100700  0.83792800  0.09141000  1
  C  C21  1  0.84806100  0.17599500  0.60846800  1
  C  C22  1  0.48419900  0.95590200  0.84320300  1
  C  C23  1  0.04009400  0.50328400  0.83812600  1
  C  C24  1  0.33570600  0.65781500  0.60358100  1
  C  C25  1  0.67156900  0.83691200  0.09760800  1
  C  C26  1  0.46948100  0.50912900  0.83045600  1
  C  C27  1  0.16323200  0.32942700  0.09809500  1
