# generated using pymatgen
data_Cu2NiC4
_symmetry_space_group_name_H-M   'P 1'
_cell_length_a   6.31597302
_cell_length_b   6.31597302
_cell_length_c   11.92853600
_cell_angle_alpha   90.00000000
_cell_angle_beta   90.00000000
_cell_angle_gamma   146.33138807
_symmetry_Int_Tables_number   1
_chemical_formula_structural   Cu2NiC4
_chemical_formula_sum   'Cu4 Ni2 C8'
_cell_volume   263.80434977
_cell_formula_units_Z   2
loop_
 _symmetry_equiv_pos_site_id
 _symmetry_equiv_pos_as_xyz
  1  'x, y, z'
loop_
 _atom_site_type_symbol
 _atom_site_label
 _atom_site_symmetry_multiplicity
 _atom_site_fract_x
 _atom_site_fract_y
 _atom_site_fract_z
 _atom_site_occupancy
  Ni  Ni0  1  0.88991500  0.11008500  0.25000000  1
  Ni  Ni1  1  0.11008500  0.88991500  0.75000000  1
  Cu  Cu2  1  0.63379700  0.36620300  0.42747100  1
  Cu  Cu3  1  0.63379700  0.36620300  0.07252900  1
  Cu  Cu4  1  0.36620300  0.63379700  0.57252900  1
  Cu  Cu5  1  0.36620300  0.63379700  0.92747100  1
  C  C6  1  0.00000000  0.00000000  0.00000000  1
  C  C7  1  0.00000000  0.00000000  0.50000000  1
  C  C8  1  0.54593500  0.45406500  0.25000000  1
  C  C9  1  0.73711500  0.26288500  0.60404500  1
  C  C10  1  0.73711500  0.26288500  0.89595500  1
  C  C11  1  0.45406500  0.54593500  0.75000000  1
  C  C12  1  0.26288500  0.73711500  0.39595500  1
  C  C13  1  0.26288500  0.73711500  0.10404500  1
