# generated using pymatgen
data_CuNi7C6
_symmetry_space_group_name_H-M   'P 1'
_cell_length_a   6.01960460
_cell_length_b   6.01960460
_cell_length_c   6.01960416
_cell_angle_alpha   61.39300885
_cell_angle_beta   61.39300885
_cell_angle_gamma   61.39301534
_symmetry_Int_Tables_number   1
_chemical_formula_structural   CuNi7C6
_chemical_formula_sum   'Cu1 Ni7 C6'
_cell_volume   159.06363030
_cell_formula_units_Z   1
loop_
 _symmetry_equiv_pos_site_id
 _symmetry_equiv_pos_as_xyz
  1  'x, y, z'
loop_
 _atom_site_type_symbol
 _atom_site_label
 _atom_site_symmetry_multiplicity
 _atom_site_fract_x
 _atom_site_fract_y
 _atom_site_fract_z
 _atom_site_occupancy
  C  C0  1  0.24154500  0.24154500  0.24154500  1
  C  C1  1  0.00924100  0.00924100  0.00924100  1
  C  C2  1  0.62006100  0.62006100  0.62006100  1
  C  C3  1  0.63210000  0.12884000  0.63210000  1
  C  C4  1  0.12884000  0.63210000  0.63210000  1
  C  C5  1  0.63210000  0.63210000  0.12884000  1
  Ni  Ni6  1  0.84330800  0.37486300  0.37486300  1
  Ni  Ni7  1  0.37486300  0.37486300  0.84330800  1
  Ni  Ni8  1  0.37486300  0.84330800  0.37486300  1
  Ni  Ni9  1  0.87309500  0.87309500  0.87309500  1
  Ni  Ni10  1  0.86834600  0.40414400  0.86834600  1
  Ni  Ni11  1  0.40414400  0.86834600  0.86834600  1
  Ni  Ni12  1  0.86834600  0.86834600  0.40414400  1
  Cu  Cu13  1  0.37913800  0.37913800  0.37913800  1
