# generated using pymatgen
data_Cu12Ni2C11
_symmetry_space_group_name_H-M   'P 1'
_cell_length_a   9.32218100
_cell_length_b   9.32218100
_cell_length_c   13.52214100
_cell_angle_alpha   90.00000000
_cell_angle_beta   90.00000000
_cell_angle_gamma   90.00000000
_symmetry_Int_Tables_number   1
_chemical_formula_structural   Cu12Ni2C11
_chemical_formula_sum   'Cu24 Ni4 C22'
_cell_volume   1175.11541168
_cell_formula_units_Z   2
loop_
 _symmetry_equiv_pos_site_id
 _symmetry_equiv_pos_as_xyz
  1  'x, y, z'
loop_
 _atom_site_type_symbol
 _atom_site_label
 _atom_site_symmetry_multiplicity
 _atom_site_fract_x
 _atom_site_fract_y
 _atom_site_fract_z
 _atom_site_occupancy
  C  C0  1  0.22733000  0.27289500  0.29430300  1
  C  C1  1  0.77267000  0.72710500  0.29430300  1
  C  C2  1  0.27289500  0.77267000  0.79430300  1
  C  C3  1  0.72710500  0.22733000  0.79430300  1
  C  C4  1  0.22733000  0.72710500  0.29430300  1
  C  C5  1  0.77267000  0.27289500  0.29430300  1
  C  C6  1  0.27289500  0.22733000  0.79430300  1
  C  C7  1  0.72710500  0.77267000  0.79430300  1
  C  C8  1  0.00000000  0.00000000  0.94159700  1
  C  C9  1  0.00000000  0.00000000  0.44159700  1
  C  C10  1  0.50000000  0.50000000  0.54748200  1
  C  C11  1  0.50000000  0.50000000  0.04748200  1
  C  C12  1  0.25735500  0.72615700  0.03664800  1
  C  C13  1  0.74264500  0.27384300  0.03664800  1
  C  C14  1  0.27384300  0.25735500  0.53664800  1
  C  C15  1  0.72615700  0.74264500  0.53664800  1
  C  C16  1  0.27384300  0.74264500  0.53664800  1
  C  C17  1  0.72615700  0.25735500  0.53664800  1
  C  C18  1  0.25735500  0.27384300  0.03664800  1
  C  C19  1  0.74264500  0.72615700  0.03664800  1
  C  C20  1  0.50000000  0.50000000  0.80158000  1
  C  C21  1  0.50000000  0.50000000  0.30158000  1
  Ni  Ni22  1  0.00000000  0.00000000  0.68515000  1
  Ni  Ni23  1  0.00000000  0.00000000  0.18515000  1
  Ni  Ni24  1  0.00000000  0.50000000  0.50340500  1
  Ni  Ni25  1  0.50000000  0.00000000  0.00340500  1
  Cu  Cu26  1  0.00000000  0.69893500  0.41028000  1
  Cu  Cu27  1  0.00000000  0.30106500  0.41028000  1
  Cu  Cu28  1  0.30106500  0.00000000  0.91028000  1
  Cu  Cu29  1  0.69893500  0.00000000  0.91028000  1
  Cu  Cu30  1  0.50000000  0.19349800  0.09962000  1
  Cu  Cu31  1  0.50000000  0.80650200  0.09962000  1
  Cu  Cu32  1  0.19349800  0.50000000  0.59962000  1
  Cu  Cu33  1  0.80650200  0.50000000  0.59962000  1
  Cu  Cu34  1  0.00000000  0.80043300  0.09273200  1
  Cu  Cu35  1  0.00000000  0.19956700  0.09273200  1
  Cu  Cu36  1  0.19956700  0.00000000  0.59273200  1
  Cu  Cu37  1  0.80043300  0.00000000  0.59273200  1
  Cu  Cu38  1  0.50000000  0.27292900  0.40844800  1
  Cu  Cu39  1  0.50000000  0.72707100  0.40844800  1
  Cu  Cu40  1  0.27292900  0.50000000  0.90844800  1
  Cu  Cu41  1  0.72707100  0.50000000  0.90844800  1
  Cu  Cu42  1  0.00000000  0.19552500  0.77895700  1
  Cu  Cu43  1  0.00000000  0.80447500  0.77895700  1
  Cu  Cu44  1  0.80447500  0.00000000  0.27895700  1
  Cu  Cu45  1  0.19552500  0.00000000  0.27895700  1
  Cu  Cu46  1  0.50000000  0.72270500  0.69205600  1
  Cu  Cu47  1  0.50000000  0.27729500  0.69205600  1
  Cu  Cu48  1  0.72270500  0.50000000  0.19205600  1
  Cu  Cu49  1  0.27729500  0.50000000  0.19205600  1
