# generated using pymatgen
data_CuNi2C11
_symmetry_space_group_name_H-M   'P 1'
_cell_length_a   8.32631800
_cell_length_b   4.77164000
_cell_length_c   7.61765078
_cell_angle_alpha   75.57774875
_cell_angle_beta   90.00000000
_cell_angle_gamma   90.00000000
_symmetry_Int_Tables_number   1
_chemical_formula_structural   CuNi2C11
_chemical_formula_sum   'Cu2 Ni4 C22'
_cell_volume   293.11314682
_cell_formula_units_Z   2
loop_
 _symmetry_equiv_pos_site_id
 _symmetry_equiv_pos_as_xyz
  1  'x, y, z'
loop_
 _atom_site_type_symbol
 _atom_site_label
 _atom_site_symmetry_multiplicity
 _atom_site_fract_x
 _atom_site_fract_y
 _atom_site_fract_z
 _atom_site_occupancy
  C  C0  1  0.63389000  0.13727400  0.40197100  1
  C  C1  1  0.13389000  0.86272600  0.59802900  1
  C  C2  1  0.86323100  0.64815700  0.90640900  1
  C  C3  1  0.36323100  0.35184300  0.09359100  1
  C  C4  1  0.00005200  0.24961000  0.24620800  1
  C  C5  1  0.50005200  0.75039000  0.75379200  1
  Ni  Ni6  1  0.64613400  0.12077100  0.01267000  1
  Ni  Ni7  1  0.14613400  0.87922900  0.98733000  1
  Ni  Ni8  1  0.85090100  0.62303500  0.50538200  1
  Ni  Ni9  1  0.35090100  0.37696500  0.49461800  1
  Cu  Cu10  1  0.48925700  0.71651100  0.26277200  1
  Cu  Cu11  1  0.98925700  0.28348900  0.73722800  1
  C  C12  1  0.46625200  0.13436700  0.59323800  1
  C  C13  1  0.81057400  0.23890300  0.04745500  1
  C  C14  1  0.16740000  0.10439000  0.10417500  1
  C  C15  1  0.55822500  0.99152900  0.19294600  1
  C  C16  1  0.96625200  0.86563300  0.40676200  1
  C  C17  1  0.68897000  0.73662900  0.54865400  1
  C  C18  1  0.05822500  0.00847100  0.80705400  1
  C  C19  1  0.66740000  0.89561000  0.89582500  1
  C  C20  1  0.33245400  0.60948500  0.60350400  1
  C  C21  1  0.94002500  0.49701500  0.69241300  1
  C  C22  1  0.31057400  0.76109700  0.95254500  1
  C  C23  1  0.03273100  0.63361300  0.09234100  1
  C  C24  1  0.44002500  0.50298500  0.30758700  1
  C  C25  1  0.83245400  0.39051500  0.39649600  1
  C  C26  1  0.18897000  0.26337100  0.45134600  1
  C  C27  1  0.53273100  0.36638700  0.90765900  1
