# generated using pymatgen
data_Cu9Ni2C11
_symmetry_space_group_name_H-M   'P 1'
_cell_length_a   7.24962300
_cell_length_b   9.21841500
_cell_length_c   13.65394800
_cell_angle_alpha   90.00000000
_cell_angle_beta   90.00000000
_cell_angle_gamma   90.00000000
_symmetry_Int_Tables_number   1
_chemical_formula_structural   Cu9Ni2C11
_chemical_formula_sum   'Cu36 Ni8 C44'
_cell_volume   912.49380098
_cell_formula_units_Z   4
loop_
 _symmetry_equiv_pos_site_id
 _symmetry_equiv_pos_as_xyz
  1  'x, y, z'
loop_
 _atom_site_type_symbol
 _atom_site_label
 _atom_site_symmetry_multiplicity
 _atom_site_fract_x
 _atom_site_fract_y
 _atom_site_fract_z
 _atom_site_occupancy
  C  C0  1  0.75000000  0.22238000  0.25000000  1
  C  C1  1  0.75000000  0.27762000  0.75000000  1
  C  C2  1  0.25000000  0.77762000  0.75000000  1
  C  C3  1  0.25000000  0.72238000  0.25000000  1
  Ni  Ni4  1  0.90990200  0.53996300  0.42470900  1
  Ni  Ni5  1  0.90990200  0.96003700  0.57529100  1
  Ni  Ni6  1  0.59009800  0.53996300  0.07529100  1
  Ni  Ni7  1  0.59009800  0.96003700  0.92470900  1
  Ni  Ni8  1  0.09009800  0.46003700  0.57529100  1
  Ni  Ni9  1  0.09009800  0.03996300  0.42470900  1
  Ni  Ni10  1  0.40990200  0.46003700  0.92470900  1
  Ni  Ni11  1  0.40990200  0.03996300  0.07529100  1
  Cu  Cu12  1  0.47854300  0.07398600  0.29929600  1
  Cu  Cu13  1  0.47854300  0.42601400  0.70070400  1
  Cu  Cu14  1  0.02145700  0.07398600  0.20070400  1
  Cu  Cu15  1  0.02145700  0.42601400  0.79929600  1
  Cu  Cu16  1  0.52145700  0.92601400  0.70070400  1
  Cu  Cu17  1  0.52145700  0.57398600  0.29929600  1
  Cu  Cu18  1  0.97854300  0.92601400  0.79929600  1
  Cu  Cu19  1  0.97854300  0.57398600  0.20070400  1
  Cu  Cu20  1  0.76189600  0.75000000  0.50000000  1
  Cu  Cu21  1  0.73810400  0.75000000  0.00000000  1
  Cu  Cu22  1  0.23810400  0.25000000  0.50000000  1
  Cu  Cu23  1  0.26189600  0.25000000  0.00000000  1
  Cu  Cu24  1  0.56188900  0.63487300  0.40378800  1
  Cu  Cu25  1  0.56188900  0.86512700  0.59621200  1
  Cu  Cu26  1  0.93811100  0.63487300  0.09621200  1
  Cu  Cu27  1  0.93811100  0.86512700  0.90378800  1
  Cu  Cu28  1  0.43811100  0.36512700  0.59621200  1
  Cu  Cu29  1  0.43811100  0.13487300  0.40378800  1
  Cu  Cu30  1  0.06188900  0.36512700  0.90378800  1
  Cu  Cu31  1  0.06188900  0.13487300  0.09621200  1
  Cu  Cu32  1  0.84672500  0.09973000  0.90059400  1
  Cu  Cu33  1  0.84672500  0.40027000  0.09940600  1
  Cu  Cu34  1  0.65327500  0.09973000  0.59940600  1
  Cu  Cu35  1  0.65327500  0.40027000  0.40059400  1
  Cu  Cu36  1  0.15327500  0.90027000  0.09940600  1
  Cu  Cu37  1  0.15327500  0.59973000  0.90059400  1
  Cu  Cu38  1  0.34672500  0.90027000  0.40059400  1
  Cu  Cu39  1  0.34672500  0.59973000  0.59940600  1
  Cu  Cu40  1  0.62788900  0.85417000  0.32165500  1
  Cu  Cu41  1  0.62788900  0.64583000  0.67834500  1
  Cu  Cu42  1  0.87211100  0.85417000  0.17834500  1
  Cu  Cu43  1  0.87211100  0.64583000  0.82165500  1
  Cu  Cu44  1  0.37211100  0.14583000  0.67834500  1
  Cu  Cu45  1  0.37211100  0.35417000  0.32165500  1
  Cu  Cu46  1  0.12788900  0.14583000  0.82165500  1
  Cu  Cu47  1  0.12788900  0.35417000  0.17834500  1
  C  C48  1  0.47873500  0.58849300  0.16594800  1
  C  C49  1  0.47873500  0.91150700  0.83405200  1
  C  C50  1  0.02126500  0.58849300  0.33405200  1
  C  C51  1  0.02126500  0.91150700  0.66594800  1
  C  C52  1  0.52126500  0.41150700  0.83405200  1
  C  C53  1  0.52126500  0.08849300  0.16594800  1
  C  C54  1  0.97873500  0.41150700  0.66594800  1
  C  C55  1  0.97873500  0.08849300  0.33405200  1
  C  C56  1  0.75918900  0.63729300  0.04334300  1
  C  C57  1  0.75918900  0.86270700  0.95665700  1
  C  C58  1  0.74081100  0.63729300  0.45665700  1
  C  C59  1  0.74081100  0.86270700  0.54334300  1
  C  C60  1  0.24081100  0.36270700  0.95665700  1
  C  C61  1  0.24081100  0.13729300  0.04334300  1
  C  C62  1  0.25918900  0.36270700  0.54334300  1
  C  C63  1  0.25918900  0.13729300  0.45665700  1
  C  C64  1  0.45524400  0.62217900  0.35426800  1
  C  C65  1  0.45524400  0.87782100  0.64573200  1
  C  C66  1  0.04475600  0.62217900  0.14573200  1
  C  C67  1  0.04475600  0.87782100  0.85426800  1
  C  C68  1  0.54475600  0.37782100  0.64573200  1
  C  C69  1  0.54475600  0.12217900  0.35426800  1
  C  C70  1  0.95524400  0.37782100  0.85426800  1
  C  C71  1  0.95524400  0.12217900  0.14573200  1
  C  C72  1  0.25538100  0.92479700  0.35076700  1
  C  C73  1  0.25538100  0.57520300  0.64923300  1
  C  C74  1  0.24461900  0.92479700  0.14923300  1
  C  C75  1  0.24461900  0.57520300  0.85076700  1
  C  C76  1  0.74461900  0.07520300  0.64923300  1
  C  C77  1  0.74461900  0.42479700  0.35076700  1
  C  C78  1  0.75538100  0.07520300  0.85076700  1
  C  C79  1  0.75538100  0.42479700  0.14923300  1
  C  C80  1  0.44481200  0.60901300  0.98371500  1
  C  C81  1  0.44481200  0.89098700  0.01628500  1
  C  C82  1  0.05518800  0.60901300  0.51628500  1
  C  C83  1  0.05518800  0.89098700  0.48371500  1
  C  C84  1  0.55518800  0.39098700  0.01628500  1
  C  C85  1  0.55518800  0.10901300  0.98371500  1
  C  C86  1  0.94481200  0.39098700  0.48371500  1
  C  C87  1  0.94481200  0.10901300  0.51628500  1
