# generated using pymatgen
data_Cu4Ni2C23
_symmetry_space_group_name_H-M   'P 1'
_cell_length_a   10.03717570
_cell_length_b   10.03717570
_cell_length_c   10.03717570
_cell_angle_alpha   60.00000000
_cell_angle_beta   60.00000000
_cell_angle_gamma   60.00000000
_symmetry_Int_Tables_number   1
_chemical_formula_structural   Cu4Ni2C23
_chemical_formula_sum   'Cu8 Ni4 C46'
_cell_volume   715.02229129
_cell_formula_units_Z   2
loop_
 _symmetry_equiv_pos_site_id
 _symmetry_equiv_pos_as_xyz
  1  'x, y, z'
loop_
 _atom_site_type_symbol
 _atom_site_label
 _atom_site_symmetry_multiplicity
 _atom_site_fract_x
 _atom_site_fract_y
 _atom_site_fract_z
 _atom_site_occupancy
  C  C0  1  0.28649500  0.71350500  0.71350500  1
  C  C1  1  0.96350500  0.96350500  0.53649500  1
  C  C2  1  0.71350500  0.28649500  0.71350500  1
  C  C3  1  0.28649500  0.71350500  0.28649500  1
  C  C4  1  0.53649500  0.53649500  0.96350500  1
  C  C5  1  0.53649500  0.96350500  0.96350500  1
  C  C6  1  0.71350500  0.28649500  0.28649500  1
  C  C7  1  0.71350500  0.71350500  0.28649500  1
  C  C8  1  0.96350500  0.53649500  0.96350500  1
  C  C9  1  0.53649500  0.96350500  0.53649500  1
  C  C10  1  0.28649500  0.28649500  0.71350500  1
  C  C11  1  0.96350500  0.53649500  0.53649500  1
  Ni  Ni12  1  0.62500000  0.12500000  0.12500000  1
  Ni  Ni13  1  0.12500000  0.62500000  0.12500000  1
  Ni  Ni14  1  0.12500000  0.12500000  0.62500000  1
  Ni  Ni15  1  0.12500000  0.12500000  0.12500000  1
  Cu  Cu16  1  0.27284400  0.90905200  0.90905200  1
  Cu  Cu17  1  0.90905200  0.90905200  0.90905200  1
  Cu  Cu18  1  0.90905200  0.27284400  0.90905200  1
  Cu  Cu19  1  0.90905200  0.90905200  0.27284400  1
  Cu  Cu20  1  0.34094800  0.34094800  0.97715600  1
  Cu  Cu21  1  0.34094800  0.34094800  0.34094800  1
  Cu  Cu22  1  0.34094800  0.97715600  0.34094800  1
  Cu  Cu23  1  0.97715600  0.34094800  0.34094800  1
  C  C24  1  0.50000000  0.50000000  0.50000000  1
  C  C25  1  0.75000000  0.75000000  0.75000000  1
  C  C26  1  0.21751500  0.97322700  0.49070200  1
  C  C27  1  0.97322700  0.21751500  0.31855500  1
  C  C28  1  0.27677300  0.93144500  0.75929800  1
  C  C29  1  0.27677300  0.75929800  0.03248500  1
  C  C30  1  0.56082900  0.56082900  0.31751200  1
  C  C31  1  0.93144500  0.03248500  0.75929800  1
  C  C32  1  0.03248500  0.75929800  0.93144500  1
  C  C33  1  0.56082900  0.56082900  0.56082900  1
  C  C34  1  0.56082900  0.31751200  0.56082900  1
  C  C35  1  0.93144500  0.27677300  0.03248500  1
  C  C36  1  0.75929800  0.27677300  0.93144500  1
  C  C37  1  0.31751200  0.56082900  0.56082900  1
  C  C38  1  0.03248500  0.93144500  0.27677300  1
  C  C39  1  0.75929800  0.93144500  0.03248500  1
  C  C40  1  0.93144500  0.75929800  0.27677300  1
  C  C41  1  0.49070200  0.21751500  0.97322700  1
  C  C42  1  0.75929800  0.03248500  0.27677300  1
  C  C43  1  0.31855500  0.49070200  0.97322700  1
  C  C44  1  0.49070200  0.31855500  0.21751500  1
  C  C45  1  0.21751500  0.31855500  0.97322700  1
  C  C46  1  0.93248800  0.68917100  0.68917100  1
  C  C47  1  0.49070200  0.97322700  0.31855500  1
  C  C48  1  0.31855500  0.97322700  0.21751500  1
  C  C49  1  0.68917100  0.68917100  0.68917100  1
  C  C50  1  0.68917100  0.93248800  0.68917100  1
  C  C51  1  0.21751500  0.49070200  0.31855500  1
  C  C52  1  0.31855500  0.21751500  0.49070200  1
  C  C53  1  0.68917100  0.68917100  0.93248800  1
  C  C54  1  0.97322700  0.49070200  0.21751500  1
  C  C55  1  0.97322700  0.31855500  0.49070200  1
  C  C56  1  0.27677300  0.03248500  0.93144500  1
  C  C57  1  0.03248500  0.27677300  0.75929800  1
