# generated using pymatgen
data_CuNi2C15
_symmetry_space_group_name_H-M   'P 1'
_cell_length_a   7.48229600
_cell_length_b   8.95367700
_cell_length_c   9.41194500
_cell_angle_alpha   90.00000000
_cell_angle_beta   90.00000000
_cell_angle_gamma   90.00000000
_symmetry_Int_Tables_number   1
_chemical_formula_structural   CuNi2C15
_chemical_formula_sum   'Cu4 Ni8 C60'
_cell_volume   630.54442313
_cell_formula_units_Z   4
loop_
 _symmetry_equiv_pos_site_id
 _symmetry_equiv_pos_as_xyz
  1  'x, y, z'
loop_
 _atom_site_type_symbol
 _atom_site_label
 _atom_site_symmetry_multiplicity
 _atom_site_fract_x
 _atom_site_fract_y
 _atom_site_fract_z
 _atom_site_occupancy
  C  C0  1  0.98969700  0.15667200  0.25000000  1
  C  C1  1  0.51030300  0.65667200  0.25000000  1
  C  C2  1  0.01030300  0.84332800  0.75000000  1
  C  C3  1  0.48969700  0.34332800  0.75000000  1
  C  C4  1  0.84061200  0.43973000  0.06385000  1
  C  C5  1  0.65938800  0.93973000  0.43615000  1
  C  C6  1  0.15938800  0.56027000  0.56385000  1
  C  C7  1  0.34061200  0.06027000  0.93615000  1
  C  C8  1  0.15938800  0.56027000  0.93615000  1
  C  C9  1  0.34061200  0.06027000  0.56385000  1
  C  C10  1  0.84061200  0.43973000  0.43615000  1
  C  C11  1  0.65938800  0.93973000  0.06385000  1
  C  C12  1  0.93957900  0.60899200  0.10489600  1
  C  C13  1  0.56042100  0.10899200  0.39510400  1
  C  C14  1  0.06042100  0.39100800  0.60489600  1
  C  C15  1  0.43957900  0.89100800  0.89510400  1
  C  C16  1  0.06042100  0.39100800  0.89510400  1
  C  C17  1  0.43957900  0.89100800  0.60489600  1
  C  C18  1  0.93957900  0.60899200  0.39510400  1
  C  C19  1  0.56042100  0.10899200  0.10489600  1
  C  C20  1  0.85012800  0.57583000  0.93717700  1
  C  C21  1  0.64987200  0.07583000  0.56282300  1
  C  C22  1  0.14987200  0.42417000  0.43717700  1
  C  C23  1  0.35012800  0.92417000  0.06282300  1
  C  C24  1  0.14987200  0.42417000  0.06282300  1
  C  C25  1  0.35012800  0.92417000  0.43717700  1
  C  C26  1  0.85012800  0.57583000  0.56282300  1
  C  C27  1  0.64987200  0.07583000  0.93717700  1
  C  C28  1  0.13264500  0.74929300  0.25000000  1
  C  C29  1  0.36735500  0.24929300  0.25000000  1
  C  C30  1  0.86735500  0.25070700  0.75000000  1
  C  C31  1  0.63264500  0.75070700  0.75000000  1
  C  C32  1  0.93231900  0.80063000  0.25000000  1
  C  C33  1  0.56768100  0.30063000  0.25000000  1
  C  C34  1  0.06768100  0.19937000  0.75000000  1
  C  C35  1  0.43231900  0.69937000  0.75000000  1
  Ni  Ni36  1  0.91503100  0.52876900  0.02383500  1
  Ni  Ni37  1  0.58496900  0.02876900  0.47616500  1
  Ni  Ni38  1  0.08496900  0.47123100  0.52383500  1
  Ni  Ni39  1  0.41503100  0.97123100  0.97616500  1
  Ni  Ni40  1  0.08496900  0.47123100  0.97616500  1
  Ni  Ni41  1  0.41503100  0.97123100  0.52383500  1
  Ni  Ni42  1  0.91503100  0.52876900  0.47616500  1
  Ni  Ni43  1  0.58496900  0.02876900  0.02383500  1
  Cu  Cu44  1  0.00973200  0.71074600  0.25000000  1
  Cu  Cu45  1  0.49026800  0.21074600  0.25000000  1
  Cu  Cu46  1  0.99026800  0.28925400  0.75000000  1
  Cu  Cu47  1  0.50973200  0.78925400  0.75000000  1
  C  C48  1  0.12794600  0.33533700  0.25000000  1
  C  C49  1  0.37205400  0.83533700  0.25000000  1
  C  C50  1  0.87205400  0.66466300  0.75000000  1
  C  C51  1  0.62794600  0.16466300  0.75000000  1
  C  C52  1  0.84627900  0.99041600  0.25000000  1
  C  C53  1  0.65372100  0.49041600  0.25000000  1
  C  C54  1  0.15372100  0.00958400  0.75000000  1
  C  C55  1  0.34627900  0.50958400  0.75000000  1
  C  C56  1  0.13437000  0.08375700  0.11394500  1
  C  C57  1  0.36563000  0.58375700  0.38605500  1
  C  C58  1  0.86563000  0.91624300  0.61394500  1
  C  C59  1  0.63437000  0.41624300  0.88605500  1
  C  C60  1  0.86563000  0.91624300  0.88605500  1
  C  C61  1  0.63437000  0.41624300  0.61394500  1
  C  C62  1  0.13437000  0.08375700  0.38605500  1
  C  C63  1  0.36563000  0.58375700  0.11394500  1
  C  C64  1  0.84664800  0.24211000  0.11235200  1
  C  C65  1  0.65335200  0.74211000  0.38764800  1
  C  C66  1  0.15335200  0.75789000  0.61235200  1
  C  C67  1  0.34664800  0.25789000  0.88764800  1
  C  C68  1  0.15335200  0.75789000  0.88764800  1
  C  C69  1  0.34664800  0.25789000  0.61235200  1
  C  C70  1  0.84664800  0.24211000  0.38764800  1
  C  C71  1  0.65335200  0.74211000  0.11235200  1
