# generated using pymatgen
data_Cu2Ni2C3
_symmetry_space_group_name_H-M   'P 1'
_cell_length_a   5.59004014
_cell_length_b   6.10967800
_cell_length_c   5.29879322
_cell_angle_alpha   90.00000000
_cell_angle_beta   115.97014864
_cell_angle_gamma   90.00000000
_symmetry_Int_Tables_number   1
_chemical_formula_structural   Cu2Ni2C3
_chemical_formula_sum   'Cu4 Ni4 C6'
_cell_volume   162.69743033
_cell_formula_units_Z   2
loop_
 _symmetry_equiv_pos_site_id
 _symmetry_equiv_pos_as_xyz
  1  'x, y, z'
loop_
 _atom_site_type_symbol
 _atom_site_label
 _atom_site_symmetry_multiplicity
 _atom_site_fract_x
 _atom_site_fract_y
 _atom_site_fract_z
 _atom_site_occupancy
  C  C0  1  0.00000000  0.50000000  0.50000000  1
  C  C1  1  0.00000000  0.00000000  0.00000000  1
  C  C2  1  0.46233900  0.11748700  0.74917800  1
  C  C3  1  0.53766100  0.61748700  0.75082200  1
  C  C4  1  0.46233900  0.38251300  0.24917800  1
  C  C5  1  0.53766100  0.88251300  0.25082200  1
  Ni  Ni6  1  0.32151700  0.37390700  0.53126500  1
  Ni  Ni7  1  0.67848300  0.87390700  0.96873500  1
  Ni  Ni8  1  0.32151700  0.12609300  0.03126500  1
  Ni  Ni9  1  0.67848300  0.62609300  0.46873500  1
  Cu  Cu10  1  0.22325100  0.61332300  0.87998000  1
  Cu  Cu11  1  0.22325100  0.88667700  0.37998000  1
  Cu  Cu12  1  0.77674900  0.11332300  0.62002000  1
  Cu  Cu13  1  0.77674900  0.38667700  0.12002000  1
