# generated using pymatgen
data_Cu2NiC9
_symmetry_space_group_name_H-M   'P 1'
_cell_length_a   6.59785338
_cell_length_b   6.59785338
_cell_length_c   5.97896627
_cell_angle_alpha   75.97299495
_cell_angle_beta   75.97299495
_cell_angle_gamma   26.04989296
_symmetry_Int_Tables_number   1
_chemical_formula_structural   Cu2NiC9
_chemical_formula_sum   'Cu2 Ni1 C9'
_cell_volume   110.70684633
_cell_formula_units_Z   1
loop_
 _symmetry_equiv_pos_site_id
 _symmetry_equiv_pos_as_xyz
  1  'x, y, z'
loop_
 _atom_site_type_symbol
 _atom_site_label
 _atom_site_symmetry_multiplicity
 _atom_site_fract_x
 _atom_site_fract_y
 _atom_site_fract_z
 _atom_site_occupancy
  C  C0  1  0.50000000  0.50000000  0.50000000  1
  C  C1  1  0.16984900  0.16984900  0.16528700  1
  C  C2  1  0.83015100  0.83015100  0.83471300  1
  Ni  Ni3  1  0.50000000  0.50000000  0.00000000  1
  Cu  Cu4  1  0.17343300  0.17343300  0.65708300  1
  Cu  Cu5  1  0.82656700  0.82656700  0.34291700  1
  C  C6  1  0.65696200  0.65696200  0.91023400  1
  C  C7  1  0.33188300  0.33188300  0.57686700  1
  C  C8  1  0.34303800  0.34303800  0.08976600  1
  C  C9  1  0.99929100  0.99929100  0.22546100  1
  C  C10  1  0.00070900  0.00070900  0.77453900  1
  C  C11  1  0.66811700  0.66811700  0.42313300  1
