# generated using pymatgen
data_Cu7NiC6
_symmetry_space_group_name_H-M   'P 1'
_cell_length_a   7.27400800
_cell_length_b   7.20641600
_cell_length_c   12.18496392
_cell_angle_alpha   61.31821422
_cell_angle_beta   90.00000000
_cell_angle_gamma   90.00000000
_symmetry_Int_Tables_number   1
_chemical_formula_structural   Cu7NiC6
_chemical_formula_sum   'Cu28 Ni4 C24'
_cell_volume   560.35709717
_cell_formula_units_Z   4
loop_
 _symmetry_equiv_pos_site_id
 _symmetry_equiv_pos_as_xyz
  1  'x, y, z'
loop_
 _atom_site_type_symbol
 _atom_site_label
 _atom_site_symmetry_multiplicity
 _atom_site_fract_x
 _atom_site_fract_y
 _atom_site_fract_z
 _atom_site_occupancy
  C  C0  1  0.50000000  0.00000000  0.50000000  1
  C  C1  1  0.00000000  0.00000000  0.00000000  1
  C  C2  1  0.00000000  0.00000000  0.50000000  1
  C  C3  1  0.50000000  0.00000000  0.00000000  1
  C  C4  1  0.25001300  0.25538600  0.47324200  1
  C  C5  1  0.24998700  0.25538600  0.97324200  1
  C  C6  1  0.74998700  0.74461400  0.52675800  1
  C  C7  1  0.75001300  0.74461400  0.02675800  1
  C  C8  1  0.35795500  0.75098500  0.75368800  1
  C  C9  1  0.14204500  0.75098500  0.25368800  1
  C  C10  1  0.64204500  0.24901500  0.24631200  1
  C  C11  1  0.85795500  0.24901500  0.74631200  1
  C  C12  1  0.57290600  0.73198400  0.76107700  1
  C  C13  1  0.92709400  0.73198400  0.26107700  1
  C  C14  1  0.42709400  0.26801600  0.23892300  1
  C  C15  1  0.07290600  0.26801600  0.73892300  1
  C  C16  1  0.95928600  0.72888800  0.76029700  1
  C  C17  1  0.54071400  0.72888800  0.26029700  1
  C  C18  1  0.04071400  0.27111200  0.23970300  1
  C  C19  1  0.45928600  0.27111200  0.73970300  1
  C  C20  1  0.00775600  0.95736800  0.73740400  1
  C  C21  1  0.49224400  0.95736800  0.23740400  1
  C  C22  1  0.99224400  0.04263200  0.26259600  1
  C  C23  1  0.50775600  0.04263200  0.76259600  1
  Ni  Ni24  1  0.25402800  0.61280700  0.52100600  1
  Ni  Ni25  1  0.24597200  0.61280700  0.02100600  1
  Ni  Ni26  1  0.74597200  0.38719300  0.47899400  1
  Ni  Ni27  1  0.75402800  0.38719300  0.97899400  1
  Cu  Cu28  1  0.41736600  0.76179100  0.48121500  1
  Cu  Cu29  1  0.08263400  0.76179100  0.98121500  1
  Cu  Cu30  1  0.58263400  0.23820900  0.51878500  1
  Cu  Cu31  1  0.91736600  0.23820900  0.01878500  1
  Cu  Cu32  1  0.08251400  0.74382000  0.50076100  1
  Cu  Cu33  1  0.41748600  0.74382000  0.00076100  1
  Cu  Cu34  1  0.91748600  0.25618000  0.49923900  1
  Cu  Cu35  1  0.58251400  0.25618000  0.99923900  1
  Cu  Cu36  1  0.24549500  0.52315200  0.43671700  1
  Cu  Cu37  1  0.25450500  0.52315200  0.93671700  1
  Cu  Cu38  1  0.75450500  0.47684800  0.56328300  1
  Cu  Cu39  1  0.74549500  0.47684800  0.06328300  1
  Cu  Cu40  1  0.26918500  0.45610100  0.65373000  1
  Cu  Cu41  1  0.23081500  0.45610100  0.15373000  1
  Cu  Cu42  1  0.73081500  0.54389900  0.34627000  1
  Cu  Cu43  1  0.76918500  0.54389900  0.84627000  1
  Cu  Cu44  1  0.25093900  0.11045100  0.48208200  1
  Cu  Cu45  1  0.24906100  0.11045100  0.98208200  1
  Cu  Cu46  1  0.74906100  0.88954900  0.51791800  1
  Cu  Cu47  1  0.75093900  0.88954900  0.01791800  1
  Cu  Cu48  1  0.47112300  0.83227000  0.71721400  1
  Cu  Cu49  1  0.02887700  0.83227000  0.21721400  1
  Cu  Cu50  1  0.52887700  0.16773000  0.28278600  1
  Cu  Cu51  1  0.97112300  0.16773000  0.78278600  1
  Cu  Cu52  1  0.03292200  0.85585700  0.70639600  1
  Cu  Cu53  1  0.46707800  0.85585700  0.20639600  1
  Cu  Cu54  1  0.96707800  0.14414300  0.29360400  1
  Cu  Cu55  1  0.53292200  0.14414300  0.79360400  1
