# generated using pymatgen
data_Cu4NiC5
_symmetry_space_group_name_H-M   'P 1'
_cell_length_a   14.64239200
_cell_length_b   5.69464000
_cell_length_c   11.15823866
_cell_angle_alpha   73.45781108
_cell_angle_beta   90.00000000
_cell_angle_gamma   90.00000000
_symmetry_Int_Tables_number   1
_chemical_formula_structural   Cu4NiC5
_chemical_formula_sum   'Cu32 Ni8 C40'
_cell_volume   891.89978842
_cell_formula_units_Z   8
loop_
 _symmetry_equiv_pos_site_id
 _symmetry_equiv_pos_as_xyz
  1  'x, y, z'
loop_
 _atom_site_type_symbol
 _atom_site_label
 _atom_site_symmetry_multiplicity
 _atom_site_fract_x
 _atom_site_fract_y
 _atom_site_fract_z
 _atom_site_occupancy
  Ni  Ni0  1  0.80015900  0.63603800  0.74407600  1
  Ni  Ni1  1  0.55723100  0.07981900  0.33398500  1
  Ni  Ni2  1  0.30015900  0.36396200  0.75592400  1
  Ni  Ni3  1  0.05723100  0.92018100  0.16601500  1
  Ni  Ni4  1  0.94276900  0.07981900  0.83398500  1
  Ni  Ni5  1  0.69984100  0.63603800  0.24407600  1
  Ni  Ni6  1  0.44276900  0.92018100  0.66601500  1
  Ni  Ni7  1  0.19984100  0.36396200  0.25592400  1
  Cu  Cu8  1  0.92869100  0.92415400  0.54145600  1
  Cu  Cu9  1  0.17129800  0.81253300  0.61772700  1
  Cu  Cu10  1  0.66664000  0.45874300  0.00477600  1
  Cu  Cu11  1  0.61056900  0.66315200  0.63073600  1
  Cu  Cu12  1  0.92504100  0.37857800  0.02605300  1
  Cu  Cu13  1  0.47353100  0.34320500  0.07559000  1
  Cu  Cu14  1  0.36849300  0.10599500  0.22090300  1
  Cu  Cu15  1  0.11056900  0.33684800  0.86926400  1
  Cu  Cu16  1  0.72722200  0.88084500  0.48324300  1
  Cu  Cu17  1  0.83336000  0.45874300  0.50477600  1
  Cu  Cu18  1  0.67129800  0.18746700  0.88227300  1
  Cu  Cu19  1  0.22722200  0.11915500  0.01675700  1
  Cu  Cu20  1  0.86849300  0.89400500  0.27909700  1
  Cu  Cu21  1  0.57495900  0.37857800  0.52605300  1
  Cu  Cu22  1  0.42869100  0.07584600  0.95854400  1
  Cu  Cu23  1  0.02646900  0.34320500  0.57559000  1
  Cu  Cu24  1  0.97353100  0.65679500  0.42441000  1
  Cu  Cu25  1  0.57130900  0.92415400  0.04145600  1
  Cu  Cu26  1  0.42504100  0.62142200  0.47394700  1
  Cu  Cu27  1  0.13150700  0.10599500  0.72090300  1
  Cu  Cu28  1  0.77277800  0.88084500  0.98324300  1
  Cu  Cu29  1  0.32870200  0.81253300  0.11772700  1
  Cu  Cu30  1  0.16664000  0.54125700  0.49522400  1
  Cu  Cu31  1  0.27277800  0.11915500  0.51675700  1
  Cu  Cu32  1  0.88943100  0.66315200  0.13073600  1
  Cu  Cu33  1  0.63150700  0.89400500  0.77909700  1
  Cu  Cu34  1  0.52646900  0.65679500  0.92441000  1
  Cu  Cu35  1  0.07495900  0.62142200  0.97394700  1
  Cu  Cu36  1  0.38943100  0.33684800  0.36926400  1
  Cu  Cu37  1  0.33336000  0.54125700  0.99522400  1
  Cu  Cu38  1  0.82870200  0.18746700  0.38227300  1
  Cu  Cu39  1  0.07130900  0.07584600  0.45854400  1
  C  C40  1  0.02296100  0.64427800  0.70523200  1
  C  C41  1  0.77912100  0.18636500  0.13074900  1
  C  C42  1  0.52296100  0.35572200  0.79476800  1
  C  C43  1  0.27912100  0.81363500  0.36925100  1
  C  C44  1  0.72087900  0.18636500  0.63074900  1
  C  C45  1  0.47703900  0.64427800  0.20523200  1
  C  C46  1  0.22087900  0.81363500  0.86925100  1
  C  C47  1  0.97703900  0.35572200  0.29476800  1
  C  C48  1  0.20223900  0.46502700  0.95754500  1
  C  C49  1  0.63514700  0.54051600  0.82224900  1
  C  C50  1  0.98328400  0.46895900  0.87136600  1
  C  C51  1  0.42741900  0.45205700  0.89813200  1
  C  C52  1  0.92741900  0.54794300  0.60186800  1
  C  C53  1  0.96546200  0.00181600  0.36286200  1
  C  C54  1  0.73724300  0.02986100  0.30579400  1
  C  C55  1  0.48328400  0.53104100  0.62863400  1
  C  C56  1  0.39312500  0.97973800  0.41639100  1
  C  C57  1  0.13514700  0.45948400  0.67775100  1
  C  C58  1  0.70223900  0.53497300  0.54245500  1
  C  C59  1  0.18378200  0.95918500  0.44159700  1
  C  C60  1  0.68378200  0.04081500  0.05840300  1
  C  C61  1  0.89312500  0.02026200  0.08360900  1
  C  C62  1  0.23724300  0.97013900  0.19420600  1
  C  C63  1  0.46546200  0.99818400  0.13713800  1
  C  C64  1  0.53453800  0.00181600  0.86286200  1
  C  C65  1  0.76275700  0.02986100  0.80579400  1
  C  C66  1  0.10687500  0.97973800  0.91639100  1
  C  C67  1  0.31621800  0.95918500  0.94159700  1
  C  C68  1  0.81621800  0.04081500  0.55840300  1
  C  C69  1  0.29776100  0.46502700  0.45754500  1
  C  C70  1  0.86485300  0.54051600  0.32224900  1
  C  C71  1  0.60687500  0.02026200  0.58360900  1
  C  C72  1  0.51671600  0.46895900  0.37136600  1
  C  C73  1  0.26275700  0.97013900  0.69420600  1
  C  C74  1  0.03453800  0.99818400  0.63713800  1
  C  C75  1  0.07258100  0.45205700  0.39813200  1
  C  C76  1  0.57258100  0.54794300  0.10186800  1
  C  C77  1  0.01671600  0.53104100  0.12863400  1
  C  C78  1  0.36485300  0.45948400  0.17775100  1
  C  C79  1  0.79776100  0.53497300  0.04245500  1
