# generated using pymatgen
data_Cu3NiC3
_symmetry_space_group_name_H-M   'P 1'
_cell_length_a   8.43421683
_cell_length_b   8.43421683
_cell_length_c   8.43421683
_cell_angle_alpha   136.93557811
_cell_angle_beta   115.87701383
_cell_angle_gamma   80.38497624
_symmetry_Int_Tables_number   1
_chemical_formula_structural   Cu3NiC3
_chemical_formula_sum   'Cu12 Ni4 C12'
_cell_volume   357.16531535
_cell_formula_units_Z   4
loop_
 _symmetry_equiv_pos_site_id
 _symmetry_equiv_pos_as_xyz
  1  'x, y, z'
loop_
 _atom_site_type_symbol
 _atom_site_label
 _atom_site_symmetry_multiplicity
 _atom_site_fract_x
 _atom_site_fract_y
 _atom_site_fract_z
 _atom_site_occupancy
  C  C0  1  0.00661600  0.36163700  0.64497900  1
  C  C1  1  0.28334200  0.63836300  0.64497900  1
  C  C2  1  0.23550600  0.87058500  0.36492100  1
  C  C3  1  0.49433600  0.12941500  0.36492100  1
  C  C4  1  0.23448200  0.24934700  0.98513500  1
  C  C5  1  0.63072500  0.63978000  0.50676600  1
  C  C6  1  0.86698600  0.36022000  0.99094400  1
  C  C7  1  0.46984700  0.50000000  0.96984700  1
  C  C8  1  0.73578800  0.75065300  0.98513500  1
  C  C9  1  0.03303700  0.00000000  0.03303700  1
  C  C10  1  0.63072500  0.12395800  0.99094400  1
  C  C11  1  0.86698600  0.87604200  0.50676600  1
  Ni  Ni12  1  0.99016800  0.22953200  0.76063600  1
  Ni  Ni13  1  0.53110400  0.77046800  0.76063600  1
  Ni  Ni14  1  0.79286700  0.00000000  0.79286700  1
  Ni  Ni15  1  0.71154700  0.50000000  0.21154700  1
  Cu  Cu16  1  0.13703700  0.37090900  0.25537200  1
  Cu  Cu17  1  0.24255600  0.50000000  0.74255600  1
  Cu  Cu18  1  0.88446400  0.62909100  0.76612800  1
  Cu  Cu19  1  0.61889600  0.38311600  0.75063300  1
  Cu  Cu20  1  0.13703700  0.88166500  0.76612800  1
  Cu  Cu21  1  0.97330600  0.74101100  0.23229500  1
  Cu  Cu22  1  0.36751700  0.61688400  0.23578100  1
  Cu  Cu23  1  0.61889600  0.86826400  0.23578100  1
  Cu  Cu24  1  0.88446400  0.11833500  0.25537200  1
  Cu  Cu25  1  0.26250100  0.00000000  0.26250100  1
  Cu  Cu26  1  0.49128500  0.25898900  0.23229500  1
  Cu  Cu27  1  0.36751700  0.13173600  0.75063300  1
