# generated using pymatgen
data_CuNi2C37
_symmetry_space_group_name_H-M   'P 1'
_cell_length_a   8.47454817
_cell_length_b   8.82226272
_cell_length_c   8.80750627
_cell_angle_alpha   60.09155733
_cell_angle_beta   59.35909993
_cell_angle_gamma   59.47725672
_symmetry_Int_Tables_number   1
_chemical_formula_structural   CuNi2C37
_chemical_formula_sum   'Cu1 Ni2 C37'
_cell_volume   461.79791509
_cell_formula_units_Z   1
loop_
 _symmetry_equiv_pos_site_id
 _symmetry_equiv_pos_as_xyz
  1  'x, y, z'
loop_
 _atom_site_type_symbol
 _atom_site_label
 _atom_site_symmetry_multiplicity
 _atom_site_fract_x
 _atom_site_fract_y
 _atom_site_fract_z
 _atom_site_occupancy
  C  C0  1  0.25193200  0.84849500  0.64766600  1
  C  C1  1  0.78572300  0.14876800  0.35353300  1
  C  C2  1  0.78726400  0.71112400  0.14678400  1
  C  C3  1  0.78784700  0.35472800  0.71032400  1
  Ni  Ni4  1  0.01656500  0.99755900  0.00217500  1
  Ni  Ni5  1  0.49334800  0.49532300  0.49978900  1
  Cu  Cu6  1  0.55210600  0.15238200  0.14810500  1
  C  C7  1  0.06466400  0.64335300  0.64784100  1
  C  C8  1  0.43833300  0.85158600  0.85373800  1
  C  C9  1  0.94177300  0.35322400  0.35022300  1
  C  C10  1  0.24163200  0.25449200  0.54985200  1
  C  C11  1  0.24307200  0.95478400  0.25150700  1
  C  C12  1  0.24274900  0.55143600  0.95386800  1
  C  C13  1  0.74591500  0.45607800  0.04306000  1
  C  C14  1  0.75710200  0.04197200  0.75273500  1
  C  C15  1  0.73652700  0.75598100  0.45693600  1
  C  C16  1  0.05271000  0.10722500  0.31267400  1
  C  C17  1  0.05300200  0.52431500  0.10535100  1
  C  C18  1  0.05070900  0.32257200  0.52064000  1
  C  C19  1  0.23151900  0.08551400  0.73112300  1
  C  C20  1  0.42324000  0.19013100  0.38205300  1
  C  C21  1  0.27482900  0.40571600  0.55735600  1
  C  C22  1  0.23684700  0.92816400  0.09601200  1
  C  C23  1  0.27828900  0.77318500  0.41652000  1
  C  C24  1  0.56238400  0.60625200  0.00999500  1
  C  C25  1  0.27803600  0.56182800  0.75840000  1
  C  C26  1  0.75653500  0.25300200  0.07914900  1
  C  C27  1  0.58471500  0.99296400  0.81123700  1
  C  C28  1  0.42453200  0.01195300  0.18047800  1
  C  C29  1  0.22866400  0.74483400  0.92757000  1
  C  C30  1  0.73050200  0.43171100  0.24037800  1
  C  C31  1  0.42478900  0.38743400  0.00345000  1
  C  C32  1  0.73530700  0.23762300  0.59408100  1
  C  C33  1  0.75751600  0.08223700  0.91152900  1
  C  C34  1  0.73173800  0.59645600  0.42695100  1
  C  C35  1  0.54094200  0.81420300  0.60487300  1
  C  C36  1  0.75333200  0.91459500  0.25561300  1
  C  C37  1  0.91334500  0.71080200  0.49390300  1
  C  C38  1  0.93434400  0.47697700  0.88755200  1
  C  C39  1  0.95562200  0.89202100  0.70197600  1
