# generated using pymatgen
data_Cu3NiC12
_symmetry_space_group_name_H-M   'P 1'
_cell_length_a   5.10998200
_cell_length_b   7.75798252
_cell_length_c   7.76484246
_cell_angle_alpha   81.76656288
_cell_angle_beta   71.03584347
_cell_angle_gamma   83.80274951
_symmetry_Int_Tables_number   1
_chemical_formula_structural   Cu3NiC12
_chemical_formula_sum   'Cu6 Ni2 C24'
_cell_volume   287.49340239
_cell_formula_units_Z   2
loop_
 _symmetry_equiv_pos_site_id
 _symmetry_equiv_pos_as_xyz
  1  'x, y, z'
loop_
 _atom_site_type_symbol
 _atom_site_label
 _atom_site_symmetry_multiplicity
 _atom_site_fract_x
 _atom_site_fract_y
 _atom_site_fract_z
 _atom_site_occupancy
  C  C0  1  0.00000000  0.00000000  0.00000000  1
  C  C1  1  0.99954200  0.25064000  0.25108300  1
  C  C2  1  0.99963000  0.62477000  0.12630100  1
  C  C3  1  0.00003500  0.12586400  0.62457400  1
  C  C4  1  0.00000000  0.50000000  0.50000000  1
  C  C5  1  0.99996500  0.87413600  0.37542600  1
  C  C6  1  0.00037000  0.37523000  0.87369900  1
  C  C7  1  0.00045800  0.74936000  0.74891700  1
  Ni  Ni8  1  0.49998600  0.31452100  0.56167100  1
  Ni  Ni9  1  0.50001400  0.68547900  0.43832900  1
  Cu  Cu10  1  0.50024300  0.06152100  0.31446100  1
  Cu  Cu11  1  0.50062700  0.43784000  0.19060000  1
  Cu  Cu12  1  0.50036000  0.81161700  0.06428500  1
  Cu  Cu13  1  0.49964000  0.18838300  0.93571500  1
  Cu  Cu14  1  0.49937300  0.56216000  0.80940000  1
  Cu  Cu15  1  0.49975700  0.93847900  0.68553900  1
  C  C16  1  0.27268900  0.03059600  0.15180000  1
  C  C17  1  0.72696300  0.21945600  0.09876300  1
  C  C18  1  0.27275800  0.40609800  0.02729500  1
  C  C19  1  0.72187100  0.10405900  0.47597300  1
  C  C20  1  0.28005100  0.28088300  0.40831100  1
  C  C21  1  0.27975200  0.65626600  0.28365900  1
  C  C22  1  0.71716200  0.47175000  0.35851300  1
  C  C23  1  0.27830600  0.16231700  0.76786500  1
  C  C24  1  0.28283800  0.52825000  0.64148700  1
  C  C25  1  0.72169400  0.83768300  0.23213500  1
  C  C26  1  0.72024800  0.34373400  0.71634100  1
  C  C27  1  0.27812900  0.89594100  0.52402700  1
  C  C28  1  0.71994900  0.71911700  0.59168900  1
  C  C29  1  0.27303700  0.78054400  0.90123700  1
  C  C30  1  0.72724200  0.59390200  0.97270500  1
  C  C31  1  0.72731100  0.96940400  0.84820000  1
