# generated using pymatgen
data_Cu3NiC11
_symmetry_space_group_name_H-M   'P 1'
_cell_length_a   5.64916800
_cell_length_b   7.90302700
_cell_length_c   18.50987092
_cell_angle_alpha   64.82142635
_cell_angle_beta   90.00000000
_cell_angle_gamma   90.00000000
_symmetry_Int_Tables_number   1
_chemical_formula_structural   Cu3NiC11
_chemical_formula_sum   'Cu12 Ni4 C44'
_cell_volume   747.86517356
_cell_formula_units_Z   4
loop_
 _symmetry_equiv_pos_site_id
 _symmetry_equiv_pos_as_xyz
  1  'x, y, z'
loop_
 _atom_site_type_symbol
 _atom_site_label
 _atom_site_symmetry_multiplicity
 _atom_site_fract_x
 _atom_site_fract_y
 _atom_site_fract_z
 _atom_site_occupancy
  Ni  Ni0  1  0.49892900  0.33327200  0.66555800  1
  Ni  Ni1  1  0.50107100  0.66672800  0.33444200  1
  Ni  Ni2  1  0.00107100  0.33327200  0.16555800  1
  Ni  Ni3  1  0.99892900  0.66672800  0.83444200  1
  Cu  Cu4  1  0.95804500  0.09166800  0.66776100  1
  Cu  Cu5  1  0.46801900  0.25843800  0.50296800  1
  Cu  Cu6  1  0.53198100  0.74156200  0.49703200  1
  Cu  Cu7  1  0.04195500  0.90833200  0.33223900  1
  Cu  Cu8  1  0.94950600  0.42658600  0.32782300  1
  Cu  Cu9  1  0.44950600  0.57341400  0.17217700  1
  Cu  Cu10  1  0.54195500  0.09166800  0.16776100  1
  Cu  Cu11  1  0.03198100  0.25843800  0.00296800  1
  Cu  Cu12  1  0.96801900  0.74156200  0.99703200  1
  Cu  Cu13  1  0.45804500  0.90833200  0.83223900  1
  Cu  Cu14  1  0.55049400  0.42658600  0.82782300  1
  Cu  Cu15  1  0.05049400  0.57341400  0.67217700  1
  C  C16  1  0.50842800  0.82708500  0.66902200  1
  C  C17  1  0.00000000  0.50000000  0.50000000  1
  C  C18  1  0.00000000  0.00000000  0.50000000  1
  C  C19  1  0.49157200  0.17291500  0.33097800  1
  C  C20  1  0.99157200  0.82708500  0.16902200  1
  C  C21  1  0.50000000  0.00000000  0.00000000  1
  C  C22  1  0.50000000  0.50000000  0.00000000  1
  C  C23  1  0.00842800  0.17291500  0.83097800  1
  C  C24  1  0.47393700  0.62579700  0.63595000  1
  C  C25  1  0.19622600  0.36386300  0.59289200  1
  C  C26  1  0.20518000  0.95343500  0.59270200  1
  C  C27  1  0.72043100  0.39466700  0.56581400  1
  C  C28  1  0.71731900  0.97550300  0.56763600  1
  C  C29  1  0.98547100  0.72532700  0.52789100  1
  C  C30  1  0.01452900  0.27467300  0.47210900  1
  C  C31  1  0.28268100  0.02449700  0.43236400  1
  C  C32  1  0.27956900  0.60533300  0.43418600  1
  C  C33  1  0.79482000  0.04656500  0.40729800  1
  C  C34  1  0.80377400  0.63613700  0.40710800  1
  C  C35  1  0.52606300  0.37420300  0.36405000  1
  C  C36  1  0.47870400  0.95307600  0.30919900  1
  C  C37  1  0.19827800  0.70039800  0.25699300  1
  C  C38  1  0.21807600  0.27772400  0.26910800  1
  C  C39  1  0.71807600  0.72227600  0.23089200  1
  C  C40  1  0.69827800  0.29960200  0.24300700  1
  C  C41  1  0.97870400  0.04692400  0.19080100  1
  C  C42  1  0.02606300  0.62579700  0.13595000  1
  C  C43  1  0.30377400  0.36386300  0.09289200  1
  C  C44  1  0.29482000  0.95343500  0.09270200  1
  C  C45  1  0.77956900  0.39466700  0.06581400  1
  C  C46  1  0.78268100  0.97550300  0.06763600  1
  C  C47  1  0.51452900  0.72532700  0.02789100  1
  C  C48  1  0.48547100  0.27467300  0.97210900  1
  C  C49  1  0.21731900  0.02449700  0.93236400  1
  C  C50  1  0.22043100  0.60533300  0.93418600  1
  C  C51  1  0.70518000  0.04656500  0.90729800  1
  C  C52  1  0.69622600  0.63613700  0.90710800  1
  C  C53  1  0.97393700  0.37420300  0.86405000  1
  C  C54  1  0.02129600  0.95307600  0.80919900  1
  C  C55  1  0.30172200  0.70039800  0.75699300  1
  C  C56  1  0.28192400  0.27772400  0.76910800  1
  C  C57  1  0.78192400  0.72227600  0.73089200  1
  C  C58  1  0.80172200  0.29960200  0.74300700  1
  C  C59  1  0.52129600  0.04692400  0.69080100  1
