# generated using pymatgen
data_Cu4Ni2C9
_symmetry_space_group_name_H-M   'P 1'
_cell_length_a   8.27782400
_cell_length_b   8.95491690
_cell_length_c   13.06118851
_cell_angle_alpha   106.75466694
_cell_angle_beta   90.48826980
_cell_angle_gamma   107.10080547
_symmetry_Int_Tables_number   1
_chemical_formula_structural   Cu4Ni2C9
_chemical_formula_sum   'Cu12 Ni6 C27'
_cell_volume   881.48496569
_cell_formula_units_Z   3
loop_
 _symmetry_equiv_pos_site_id
 _symmetry_equiv_pos_as_xyz
  1  'x, y, z'
loop_
 _atom_site_type_symbol
 _atom_site_label
 _atom_site_symmetry_multiplicity
 _atom_site_fract_x
 _atom_site_fract_y
 _atom_site_fract_z
 _atom_site_occupancy
  C  C0  1  0.00000000  0.00000000  0.00000000  1
  C  C1  1  0.81099700  0.37431600  0.48778600  1
  C  C2  1  0.18900300  0.62568400  0.51221400  1
  C  C3  1  0.90026400  0.69053500  0.97508800  1
  C  C4  1  0.43281300  0.62851000  0.02516000  1
  C  C5  1  0.64200300  0.37769200  0.59761200  1
  C  C6  1  0.09973600  0.30946500  0.02491200  1
  C  C7  1  0.56718700  0.37149000  0.97484000  1
  C  C8  1  0.35799700  0.62230800  0.40238800  1
  C  C9  1  0.18975500  0.89281100  0.43400300  1
  C  C10  1  0.80270000  0.50008200  0.09712300  1
  C  C11  1  0.02942400  0.29298400  0.98161700  1
  C  C12  1  0.81024500  0.10718900  0.56599700  1
  C  C13  1  0.19730000  0.49991800  0.90287700  1
  C  C14  1  0.97057600  0.70701600  0.01838300  1
  C  C15  1  0.41409700  0.63628300  0.79227500  1
  C  C16  1  0.83586600  0.87908900  0.42157100  1
  C  C17  1  0.23528400  0.50294500  0.63494800  1
  C  C18  1  0.58590300  0.36371700  0.20772500  1
  C  C19  1  0.16413400  0.12091100  0.57842900  1
  C  C20  1  0.76471600  0.49705500  0.36505200  1
  C  C21  1  0.53204100  0.37176700  0.92188000  1
  C  C22  1  0.27131900  0.87799800  0.41564200  1
  C  C23  1  0.84772700  0.91862400  0.37759500  1
  C  C24  1  0.46795900  0.62823300  0.07812000  1
  C  C25  1  0.72868100  0.12200200  0.58435800  1
  C  C26  1  0.15227300  0.08137600  0.62240500  1
  Ni  Ni27  1  0.65578500  0.94208400  0.98808000  1
  Ni  Ni28  1  0.46833400  0.76170700  0.56650600  1
  Ni  Ni29  1  0.93122300  0.66786000  0.56416000  1
  Ni  Ni30  1  0.34421500  0.05791600  0.01192000  1
  Ni  Ni31  1  0.53166600  0.23829300  0.43349400  1
  Ni  Ni32  1  0.06877700  0.33214000  0.43584000  1
  Cu  Cu33  1  0.69959300  0.37076200  0.18545900  1
  Cu  Cu34  1  0.74163900  0.52745000  0.16043000  1
  Cu  Cu35  1  0.76048900  0.84249300  0.89694500  1
  Cu  Cu36  1  0.30040700  0.62923800  0.81454100  1
  Cu  Cu37  1  0.25836100  0.47255000  0.83957000  1
  Cu  Cu38  1  0.23951100  0.15750700  0.10305500  1
  Cu  Cu39  1  0.84121100  0.99279000  0.75801000  1
  Cu  Cu40  1  0.78974200  0.23393100  0.80252800  1
  Cu  Cu41  1  0.89923000  0.15235900  0.79409800  1
  Cu  Cu42  1  0.15878900  0.00721000  0.24199000  1
  Cu  Cu43  1  0.21025800  0.76606900  0.19747200  1
  Cu  Cu44  1  0.10077000  0.84764100  0.20590200  1
