# generated using pymatgen
data_CuNiC4
_symmetry_space_group_name_H-M   'P 1'
_cell_length_a   6.60674302
_cell_length_b   6.60674302
_cell_length_c   6.60674302
_cell_angle_alpha   132.58705588
_cell_angle_beta   132.58705588
_cell_angle_gamma   69.30340137
_symmetry_Int_Tables_number   1
_chemical_formula_structural   CuNiC4
_chemical_formula_sum   'Cu2 Ni2 C8'
_cell_volume   153.38615472
_cell_formula_units_Z   2
loop_
 _symmetry_equiv_pos_site_id
 _symmetry_equiv_pos_as_xyz
  1  'x, y, z'
loop_
 _atom_site_type_symbol
 _atom_site_label
 _atom_site_symmetry_multiplicity
 _atom_site_fract_x
 _atom_site_fract_y
 _atom_site_fract_z
 _atom_site_occupancy
  Ni  Ni0  1  0.25000000  0.75000000  0.50000000  1
  Ni  Ni1  1  0.50000000  0.50000000  0.00000000  1
  Cu  Cu2  1  0.00000000  0.00000000  0.00000000  1
  Cu  Cu3  1  0.75000000  0.25000000  0.50000000  1
  C  C4  1  0.09573900  0.14079400  0.53431200  1
  C  C5  1  0.89079400  0.85648100  0.54505400  1
  C  C6  1  0.31142700  0.34573900  0.45494600  1
  C  C7  1  0.14351900  0.68857300  0.03431200  1
  C  C8  1  0.60648100  0.56142700  0.46568800  1
  C  C9  1  0.43857300  0.90426100  0.04505400  1
  C  C10  1  0.85920600  0.39351900  0.95494600  1
  C  C11  1  0.65426100  0.10920600  0.96568800  1
