# generated using pymatgen
data_Cu6Ni2C
_symmetry_space_group_name_H-M   'P 1'
_cell_length_a   11.50103400
_cell_length_b   7.13053200
_cell_length_c   8.95163878
_cell_angle_alpha   52.29563291
_cell_angle_beta   90.00000000
_cell_angle_gamma   90.00000000
_symmetry_Int_Tables_number   1
_chemical_formula_structural   Cu6Ni2C
_chemical_formula_sum   'Cu24 Ni8 C4'
_cell_volume   580.81119585
_cell_formula_units_Z   4
loop_
 _symmetry_equiv_pos_site_id
 _symmetry_equiv_pos_as_xyz
  1  'x, y, z'
loop_
 _atom_site_type_symbol
 _atom_site_label
 _atom_site_symmetry_multiplicity
 _atom_site_fract_x
 _atom_site_fract_y
 _atom_site_fract_z
 _atom_site_occupancy
  C  C0  1  0.93554300  0.21747600  0.78262300  1
  C  C1  1  0.43554300  0.78252400  0.71737700  1
  C  C2  1  0.56445700  0.21747600  0.28262300  1
  C  C3  1  0.06445700  0.78252400  0.21737700  1
  Ni  Ni4  1  0.10368000  0.78150700  0.68109300  1
  Ni  Ni5  1  0.60368000  0.21849300  0.81890700  1
  Ni  Ni6  1  0.25345300  0.27739000  0.67590200  1
  Ni  Ni7  1  0.75345300  0.72261000  0.82409800  1
  Ni  Ni8  1  0.24654700  0.27739000  0.17590200  1
  Ni  Ni9  1  0.74654700  0.72261000  0.32409800  1
  Ni  Ni10  1  0.39632000  0.78150700  0.18109300  1
  Ni  Ni11  1  0.89632000  0.21849300  0.31890700  1
  Cu  Cu12  1  0.10615100  0.39947700  0.55724100  1
  Cu  Cu13  1  0.49750100  0.45905900  0.72083800  1
  Cu  Cu14  1  0.91732000  0.07089000  0.57545500  1
  Cu  Cu15  1  0.73878500  0.38447200  0.78647100  1
  Cu  Cu16  1  0.23878500  0.61552800  0.71352900  1
  Cu  Cu17  1  0.54926700  0.07042000  0.58318700  1
  Cu  Cu18  1  0.99750100  0.54094100  0.77916200  1
  Cu  Cu19  1  0.26828000  0.04580300  0.63152400  1
  Cu  Cu20  1  0.76828000  0.95419700  0.86847600  1
  Cu  Cu21  1  0.39384900  0.39947700  0.05724100  1
  Cu  Cu22  1  0.04926700  0.92958000  0.91681300  1
  Cu  Cu23  1  0.58268000  0.07089000  0.07545500  1
  Cu  Cu24  1  0.41732000  0.92911000  0.92454500  1
  Cu  Cu25  1  0.95073300  0.07042000  0.08318700  1
  Cu  Cu26  1  0.60615100  0.60052300  0.94275900  1
  Cu  Cu27  1  0.23172000  0.04580300  0.13152400  1
  Cu  Cu28  1  0.73172000  0.95419700  0.36847600  1
  Cu  Cu29  1  0.00249900  0.45905900  0.22083800  1
  Cu  Cu30  1  0.45073300  0.92958000  0.41681300  1
  Cu  Cu31  1  0.76121500  0.38447200  0.28647100  1
  Cu  Cu32  1  0.26121500  0.61552800  0.21352900  1
  Cu  Cu33  1  0.08268000  0.92911000  0.42454500  1
  Cu  Cu34  1  0.50249900  0.54094100  0.27916200  1
  Cu  Cu35  1  0.89384900  0.60052300  0.44275900  1
