# generated using pymatgen
data_CuNiC5
_symmetry_space_group_name_H-M   'P 1'
_cell_length_a   5.04094800
_cell_length_b   6.63151100
_cell_length_c   10.34866300
_cell_angle_alpha   90.00000000
_cell_angle_beta   90.00000000
_cell_angle_gamma   90.00000000
_symmetry_Int_Tables_number   1
_chemical_formula_structural   CuNiC5
_chemical_formula_sum   'Cu4 Ni4 C20'
_cell_volume   345.94651215
_cell_formula_units_Z   4
loop_
 _symmetry_equiv_pos_site_id
 _symmetry_equiv_pos_as_xyz
  1  'x, y, z'
loop_
 _atom_site_type_symbol
 _atom_site_label
 _atom_site_symmetry_multiplicity
 _atom_site_fract_x
 _atom_site_fract_y
 _atom_site_fract_z
 _atom_site_occupancy
  C  C0  1  0.68576800  0.78699800  0.65968400  1
  C  C1  1  0.18576800  0.28699800  0.84031600  1
  C  C2  1  0.81423200  0.78699800  0.15968400  1
  C  C3  1  0.31423200  0.28699800  0.34031600  1
  Ni  Ni4  1  0.68508200  0.28448300  0.65970400  1
  Ni  Ni5  1  0.18508200  0.78448300  0.84029600  1
  Ni  Ni6  1  0.81491800  0.28448300  0.15970400  1
  Ni  Ni7  1  0.31491800  0.78448300  0.34029600  1
  Cu  Cu8  1  0.18591800  0.53781600  0.59257400  1
  Cu  Cu9  1  0.68591800  0.03781600  0.90742600  1
  Cu  Cu10  1  0.31408200  0.53781600  0.09257400  1
  Cu  Cu11  1  0.81408200  0.03781600  0.40742600  1
  C  C12  1  0.73994000  0.05247200  0.56141200  1
  C  C13  1  0.86320000  0.52248300  0.61619000  1
  C  C14  1  0.32097000  0.33651800  0.65806700  1
  C  C15  1  0.29696800  0.73751700  0.66975600  1
  C  C16  1  0.79696800  0.23751700  0.83024400  1
  C  C17  1  0.82097000  0.83651800  0.84193300  1
  C  C18  1  0.36320000  0.02248300  0.88381000  1
  C  C19  1  0.23994000  0.55247200  0.93858800  1
  C  C20  1  0.76006000  0.05247200  0.06141200  1
  C  C21  1  0.63680000  0.52248300  0.11619000  1
  C  C22  1  0.17903000  0.33651800  0.15806700  1
  C  C23  1  0.20303200  0.73751700  0.16975600  1
  C  C24  1  0.70303200  0.23751700  0.33024400  1
  C  C25  1  0.67903000  0.83651800  0.34193300  1
  C  C26  1  0.13680000  0.02248300  0.38381000  1
  C  C27  1  0.26006000  0.55247200  0.43858800  1
