# generated using pymatgen
data_Cu16Ni4C
_symmetry_space_group_name_H-M   'P 1'
_cell_length_a   5.58075117
_cell_length_b   5.58075117
_cell_length_c   11.97349000
_cell_angle_alpha   90.00000000
_cell_angle_beta   90.00000000
_cell_angle_gamma   90.09979100
_symmetry_Int_Tables_number   1
_chemical_formula_structural   Cu16Ni4C
_chemical_formula_sum   'Cu32 Ni8 C2'
_cell_volume   372.91118962
_cell_formula_units_Z   2
loop_
 _symmetry_equiv_pos_site_id
 _symmetry_equiv_pos_as_xyz
  1  'x, y, z'
loop_
 _atom_site_type_symbol
 _atom_site_label
 _atom_site_symmetry_multiplicity
 _atom_site_fract_x
 _atom_site_fract_y
 _atom_site_fract_z
 _atom_site_occupancy
  C  C0  1  0.72069600  0.27930400  0.25000000  1
  C  C1  1  0.27930400  0.72069600  0.75000000  1
  Ni  Ni2  1  0.21929500  0.34674300  0.25000000  1
  Ni  Ni3  1  0.34674300  0.21929500  0.75000000  1
  Ni  Ni4  1  0.78070500  0.65325700  0.75000000  1
  Ni  Ni5  1  0.65325700  0.78070500  0.25000000  1
  Ni  Ni6  1  0.77414100  0.22585900  0.04318400  1
  Ni  Ni7  1  0.22585900  0.77414100  0.95681600  1
  Ni  Ni8  1  0.77414100  0.22585900  0.45681600  1
  Ni  Ni9  1  0.22585900  0.77414100  0.54318400  1
  Cu  Cu10  1  0.07800000  0.51651700  0.25000000  1
  Cu  Cu11  1  0.51651700  0.07800000  0.75000000  1
  Cu  Cu12  1  0.92200000  0.48348300  0.75000000  1
  Cu  Cu13  1  0.48348300  0.92200000  0.25000000  1
  Cu  Cu14  1  0.11370900  0.15102800  0.25000000  1
  Cu  Cu15  1  0.15102800  0.11370900  0.75000000  1
  Cu  Cu16  1  0.88629100  0.84897200  0.75000000  1
  Cu  Cu17  1  0.84897200  0.88629100  0.25000000  1
  Cu  Cu18  1  0.34019800  0.35650500  0.33612500  1
  Cu  Cu19  1  0.35650500  0.34019800  0.66387500  1
  Cu  Cu20  1  0.34019800  0.35650500  0.16387500  1
  Cu  Cu21  1  0.35650500  0.34019800  0.83612500  1
  Cu  Cu22  1  0.65980200  0.64349500  0.66387500  1
  Cu  Cu23  1  0.64349500  0.65980200  0.33612500  1
  Cu  Cu24  1  0.65980200  0.64349500  0.83612500  1
  Cu  Cu25  1  0.64349500  0.65980200  0.16387500  1
  Cu  Cu26  1  0.90412400  0.09587600  0.10269000  1
  Cu  Cu27  1  0.09587600  0.90412400  0.89731000  1
  Cu  Cu28  1  0.90412400  0.09587600  0.39731000  1
  Cu  Cu29  1  0.09587600  0.90412400  0.60269000  1
  Cu  Cu30  1  0.82073600  0.43236600  0.07646700  1
  Cu  Cu31  1  0.43236600  0.82073600  0.92353300  1
  Cu  Cu32  1  0.82073600  0.43236600  0.42353300  1
  Cu  Cu33  1  0.43236600  0.82073600  0.57646700  1
  Cu  Cu34  1  0.17926400  0.56763400  0.92353300  1
  Cu  Cu35  1  0.56763400  0.17926400  0.07646700  1
  Cu  Cu36  1  0.17926400  0.56763400  0.57646700  1
  Cu  Cu37  1  0.56763400  0.17926400  0.42353300  1
  Cu  Cu38  1  0.20015700  0.79984300  0.05521700  1
  Cu  Cu39  1  0.79984300  0.20015700  0.94478300  1
  Cu  Cu40  1  0.20015700  0.79984300  0.44478300  1
  Cu  Cu41  1  0.79984300  0.20015700  0.55521700  1
