# generated using pymatgen
data_Cu(NiC)5
_symmetry_space_group_name_H-M   'P 1'
_cell_length_a   7.34490900
_cell_length_b   10.05580700
_cell_length_c   14.15542900
_cell_angle_alpha   90.00000000
_cell_angle_beta   90.00000000
_cell_angle_gamma   90.00000000
_symmetry_Int_Tables_number   1
_chemical_formula_structural   Cu(NiC)5
_chemical_formula_sum   'Cu4 Ni20 C20'
_cell_volume   1045.50565125
_cell_formula_units_Z   4
loop_
 _symmetry_equiv_pos_site_id
 _symmetry_equiv_pos_as_xyz
  1  'x, y, z'
loop_
 _atom_site_type_symbol
 _atom_site_label
 _atom_site_symmetry_multiplicity
 _atom_site_fract_x
 _atom_site_fract_y
 _atom_site_fract_z
 _atom_site_occupancy
  C  C0  1  0.35899600  0.00027700  0.14747500  1
  C  C1  1  0.35899600  0.49972300  0.14747500  1
  C  C2  1  0.85899600  0.99972300  0.35252500  1
  C  C3  1  0.85899600  0.50027700  0.35252500  1
  C  C4  1  0.14100400  0.49972300  0.64747500  1
  C  C5  1  0.14100400  0.00027700  0.64747500  1
  C  C6  1  0.64100400  0.99972300  0.85252500  1
  C  C7  1  0.64100400  0.50027700  0.85252500  1
  C  C8  1  0.81320500  0.25000000  0.11335700  1
  C  C9  1  0.31320500  0.75000000  0.38664300  1
  C  C10  1  0.68679500  0.25000000  0.61335700  1
  C  C11  1  0.18679500  0.75000000  0.88664300  1
  C  C12  1  0.95714000  0.82981000  0.04724300  1
  C  C13  1  0.95714000  0.67019000  0.04724300  1
  C  C14  1  0.45714000  0.17019000  0.45275700  1
  C  C15  1  0.45714000  0.32981000  0.45275700  1
  C  C16  1  0.54286000  0.67019000  0.54724300  1
  C  C17  1  0.54286000  0.82981000  0.54724300  1
  C  C18  1  0.04286000  0.17019000  0.95275700  1
  C  C19  1  0.04286000  0.32981000  0.95275700  1
  Ni  Ni20  1  0.54165900  0.25000000  0.00241700  1
  Ni  Ni21  1  0.81538500  0.99863800  0.10597700  1
  Ni  Ni22  1  0.81538500  0.50136200  0.10597700  1
  Ni  Ni23  1  0.09001600  0.25000000  0.21776300  1
  Ni  Ni24  1  0.10518600  0.75000000  0.24398000  1
  Ni  Ni25  1  0.60518600  0.25000000  0.25602000  1
  Ni  Ni26  1  0.59001600  0.75000000  0.28223700  1
  Ni  Ni27  1  0.31538500  0.49863800  0.39402300  1
  Ni  Ni28  1  0.31538500  0.00136200  0.39402300  1
  Ni  Ni29  1  0.04165900  0.75000000  0.49758300  1
  Ni  Ni30  1  0.95834100  0.25000000  0.50241700  1
  Ni  Ni31  1  0.68461500  0.99863800  0.60597700  1
  Ni  Ni32  1  0.68461500  0.50136200  0.60597700  1
  Ni  Ni33  1  0.40998400  0.25000000  0.71776300  1
  Ni  Ni34  1  0.39481400  0.75000000  0.74398000  1
  Ni  Ni35  1  0.89481400  0.25000000  0.75602000  1
  Ni  Ni36  1  0.90998400  0.75000000  0.78223700  1
  Ni  Ni37  1  0.18461500  0.49863800  0.89402300  1
  Ni  Ni38  1  0.18461500  0.00136200  0.89402300  1
  Ni  Ni39  1  0.45834100  0.75000000  0.99758300  1
  Cu  Cu40  1  0.99644700  0.75000000  0.01199700  1
  Cu  Cu41  1  0.49644700  0.25000000  0.48800300  1
  Cu  Cu42  1  0.50355300  0.75000000  0.51199700  1
  Cu  Cu43  1  0.00355300  0.25000000  0.98800300  1
