# generated using pymatgen
data_Cu12Ni2C13
_symmetry_space_group_name_H-M   'P 1'
_cell_length_a   10.81313600
_cell_length_b   10.81313600
_cell_length_c   10.81313600
_cell_angle_alpha   90.00000000
_cell_angle_beta   90.00000000
_cell_angle_gamma   90.00000000
_symmetry_Int_Tables_number   1
_chemical_formula_structural   Cu12Ni2C13
_chemical_formula_sum   'Cu48 Ni8 C52'
_cell_volume   1264.31414215
_cell_formula_units_Z   4
loop_
 _symmetry_equiv_pos_site_id
 _symmetry_equiv_pos_as_xyz
  1  'x, y, z'
loop_
 _atom_site_type_symbol
 _atom_site_label
 _atom_site_symmetry_multiplicity
 _atom_site_fract_x
 _atom_site_fract_y
 _atom_site_fract_z
 _atom_site_occupancy
  C  C0  1  0.50000000  0.50000000  0.00000000  1
  C  C1  1  0.50000000  0.00000000  0.50000000  1
  C  C2  1  0.00000000  0.50000000  0.50000000  1
  C  C3  1  0.00000000  0.00000000  0.00000000  1
  C  C4  1  0.03207300  0.58086300  0.26391000  1
  C  C5  1  0.96792700  0.08086300  0.23609000  1
  C  C6  1  0.46792700  0.41913700  0.76391000  1
  C  C7  1  0.53207300  0.91913700  0.73609000  1
  C  C8  1  0.26391000  0.03207300  0.58086300  1
  C  C9  1  0.23609000  0.96792700  0.08086300  1
  C  C10  1  0.76391000  0.46792700  0.41913700  1
  C  C11  1  0.73609000  0.53207300  0.91913700  1
  C  C12  1  0.58086300  0.26391000  0.03207300  1
  C  C13  1  0.08086300  0.23609000  0.96792700  1
  C  C14  1  0.41913700  0.76391000  0.46792700  1
  C  C15  1  0.91913700  0.73609000  0.53207300  1
  C  C16  1  0.96792700  0.41913700  0.73609000  1
  C  C17  1  0.03207300  0.91913700  0.76391000  1
  C  C18  1  0.53207300  0.58086300  0.23609000  1
  C  C19  1  0.46792700  0.08086300  0.26391000  1
  C  C20  1  0.73609000  0.96792700  0.41913700  1
  C  C21  1  0.76391000  0.03207300  0.91913700  1
  C  C22  1  0.23609000  0.53207300  0.58086300  1
  C  C23  1  0.26391000  0.46792700  0.08086300  1
  C  C24  1  0.41913700  0.73609000  0.96792700  1
  C  C25  1  0.91913700  0.76391000  0.03207300  1
  C  C26  1  0.58086300  0.23609000  0.53207300  1
  C  C27  1  0.08086300  0.26391000  0.46792700  1
  C  C28  1  0.26548900  0.43319900  0.94163800  1
  C  C29  1  0.73451100  0.93319900  0.55836200  1
  C  C30  1  0.23451100  0.56680100  0.44163800  1
  C  C31  1  0.76548900  0.06680100  0.05836200  1
  C  C32  1  0.94163800  0.26548900  0.43319900  1
  C  C33  1  0.55836200  0.73451100  0.93319900  1
  C  C34  1  0.44163800  0.23451100  0.56680100  1
  C  C35  1  0.05836200  0.76548900  0.06680100  1
  C  C36  1  0.43319900  0.94163800  0.26548900  1
  C  C37  1  0.93319900  0.55836200  0.73451100  1
  C  C38  1  0.56680100  0.44163800  0.23451100  1
  C  C39  1  0.06680100  0.05836200  0.76548900  1
  C  C40  1  0.73451100  0.56680100  0.05836200  1
  C  C41  1  0.26548900  0.06680100  0.44163800  1
  C  C42  1  0.76548900  0.43319900  0.55836200  1
  C  C43  1  0.23451100  0.93319900  0.94163800  1
  C  C44  1  0.05836200  0.73451100  0.56680100  1
  C  C45  1  0.44163800  0.26548900  0.06680100  1
  C  C46  1  0.55836200  0.76548900  0.43319900  1
  C  C47  1  0.94163800  0.23451100  0.93319900  1
  C  C48  1  0.56680100  0.05836200  0.73451100  1
  C  C49  1  0.06680100  0.44163800  0.26548900  1
  C  C50  1  0.43319900  0.55836200  0.76548900  1
  C  C51  1  0.93319900  0.94163800  0.23451100  1
  Ni  Ni52  1  0.22637100  0.77362900  0.27362900  1
  Ni  Ni53  1  0.77362900  0.27362900  0.22637100  1
  Ni  Ni54  1  0.27362900  0.22637100  0.77362900  1
  Ni  Ni55  1  0.72637100  0.72637100  0.72637100  1
  Ni  Ni56  1  0.77362900  0.22637100  0.72637100  1
  Ni  Ni57  1  0.22637100  0.72637100  0.77362900  1
  Ni  Ni58  1  0.72637100  0.77362900  0.22637100  1
  Ni  Ni59  1  0.27362900  0.27362900  0.27362900  1
  Cu  Cu60  1  0.32709700  0.64645900  0.68489100  1
  Cu  Cu61  1  0.67290300  0.14645900  0.81510900  1
  Cu  Cu62  1  0.17290300  0.35354100  0.18489100  1
  Cu  Cu63  1  0.82709700  0.85354100  0.31510900  1
  Cu  Cu64  1  0.68489100  0.32709700  0.64645900  1
  Cu  Cu65  1  0.81510900  0.67290300  0.14645900  1
  Cu  Cu66  1  0.18489100  0.17290300  0.35354100  1
  Cu  Cu67  1  0.31510900  0.82709700  0.85354100  1
  Cu  Cu68  1  0.64645900  0.68489100  0.32709700  1
  Cu  Cu69  1  0.14645900  0.81510900  0.67290300  1
  Cu  Cu70  1  0.35354100  0.18489100  0.17290300  1
  Cu  Cu71  1  0.85354100  0.31510900  0.82709700  1
  Cu  Cu72  1  0.67290300  0.35354100  0.31510900  1
  Cu  Cu73  1  0.32709700  0.85354100  0.18489100  1
  Cu  Cu74  1  0.82709700  0.64645900  0.81510900  1
  Cu  Cu75  1  0.17290300  0.14645900  0.68489100  1
  Cu  Cu76  1  0.31510900  0.67290300  0.35354100  1
  Cu  Cu77  1  0.18489100  0.32709700  0.85354100  1
  Cu  Cu78  1  0.81510900  0.82709700  0.64645900  1
  Cu  Cu79  1  0.68489100  0.17290300  0.14645900  1
  Cu  Cu80  1  0.35354100  0.31510900  0.67290300  1
  Cu  Cu81  1  0.85354100  0.18489100  0.32709700  1
  Cu  Cu82  1  0.64645900  0.81510900  0.82709700  1
  Cu  Cu83  1  0.14645900  0.68489100  0.17290300  1
  Cu  Cu84  1  0.49159300  0.49810200  0.80353500  1
  Cu  Cu85  1  0.50840700  0.99810200  0.69646500  1
  Cu  Cu86  1  0.00840700  0.50189800  0.30353500  1
  Cu  Cu87  1  0.99159300  0.00189800  0.19646500  1
  Cu  Cu88  1  0.80353500  0.49159300  0.49810200  1
  Cu  Cu89  1  0.69646500  0.50840700  0.99810200  1
  Cu  Cu90  1  0.30353500  0.00840700  0.50189800  1
  Cu  Cu91  1  0.19646500  0.99159300  0.00189800  1
  Cu  Cu92  1  0.49810200  0.80353500  0.49159300  1
  Cu  Cu93  1  0.99810200  0.69646500  0.50840700  1
  Cu  Cu94  1  0.50189800  0.30353500  0.00840700  1
  Cu  Cu95  1  0.00189800  0.19646500  0.99159300  1
  Cu  Cu96  1  0.50840700  0.50189800  0.19646500  1
  Cu  Cu97  1  0.49159300  0.00189800  0.30353500  1
  Cu  Cu98  1  0.99159300  0.49810200  0.69646500  1
  Cu  Cu99  1  0.00840700  0.99810200  0.80353500  1
  Cu  Cu100  1  0.19646500  0.50840700  0.50189800  1
  Cu  Cu101  1  0.30353500  0.49159300  0.00189800  1
  Cu  Cu102  1  0.69646500  0.99159300  0.49810200  1
  Cu  Cu103  1  0.80353500  0.00840700  0.99810200  1
  Cu  Cu104  1  0.50189800  0.19646500  0.50840700  1
  Cu  Cu105  1  0.00189800  0.30353500  0.49159300  1
  Cu  Cu106  1  0.49810200  0.69646500  0.99159300  1
  Cu  Cu107  1  0.99810200  0.80353500  0.00840700  1
