# generated using pymatgen
data_Cu(NiC4)3
_symmetry_space_group_name_H-M   'P 1'
_cell_length_a   6.09341430
_cell_length_b   6.09356837
_cell_length_c   10.78937017
_cell_angle_alpha   92.10348792
_cell_angle_beta   74.69597945
_cell_angle_gamma   62.12131353
_symmetry_Int_Tables_number   1
_chemical_formula_structural   Cu(NiC4)3
_chemical_formula_sum   'Cu2 Ni6 C24'
_cell_volume   335.48520391
_cell_formula_units_Z   2
loop_
 _symmetry_equiv_pos_site_id
 _symmetry_equiv_pos_as_xyz
  1  'x, y, z'
loop_
 _atom_site_type_symbol
 _atom_site_label
 _atom_site_symmetry_multiplicity
 _atom_site_fract_x
 _atom_site_fract_y
 _atom_site_fract_z
 _atom_site_occupancy
  C  C0  1  0.49992700  0.25007400  0.75000000  1
  C  C1  1  0.49992500  0.75007300  0.25000000  1
  C  C2  1  0.49998000  0.99995000  0.00000700  1
  C  C3  1  0.49998600  0.49994500  0.50000200  1
  C  C4  1  0.00006700  0.74992800  0.75000400  1
  C  C5  1  0.00007600  0.24992800  0.24999600  1
  C  C6  1  0.00005800  0.50001300  0.99999300  1
  C  C7  1  0.00005700  0.00001200  0.49999800  1
  Ni  Ni8  1  0.99881400  0.25092000  0.75042800  1
  Ni  Ni9  1  0.50035400  0.99964700  0.50000000  1
  Ni  Ni10  1  0.49950800  0.25075800  0.24957200  1
  Ni  Ni11  1  0.99884000  0.75089800  0.25041800  1
  Ni  Ni12  1  0.50035400  0.49965100  0.99999600  1
  Ni  Ni13  1  0.49950700  0.75074800  0.74958400  1
  Cu  Cu14  1  0.00020400  0.49979500  0.50000200  1
  Cu  Cu15  1  0.00020400  0.99979500  0.00000300  1
  C  C16  1  0.26049000  0.39106200  0.13034300  1
  C  C17  1  0.26049600  0.89102800  0.63036200  1
  C  C18  1  0.73929000  0.60916100  0.86965600  1
  C  C19  1  0.73934200  0.10913200  0.36963800  1
  C  C20  1  0.21654200  0.66060400  0.88688200  1
  C  C21  1  0.21652000  0.16062500  0.38687900  1
  C  C22  1  0.77402200  0.38182800  0.60771200  1
  C  C23  1  0.77404900  0.88180900  0.10770100  1
  C  C24  1  0.77394700  0.10249700  0.88705200  1
  C  C25  1  0.77398300  0.60247900  0.38703600  1
  C  C26  1  0.78457200  0.33897700  0.11294500  1
  C  C27  1  0.78457600  0.83895700  0.61296100  1
  C  C28  1  0.22586500  0.61828500  0.39228800  1
  C  C29  1  0.22587100  0.11827200  0.89229900  1
  C  C30  1  0.22629900  0.89656000  0.11311900  1
  C  C31  1  0.22627500  0.39658800  0.61312400  1
