# generated using pymatgen
data_Cu4NiC3
_symmetry_space_group_name_H-M   'P 1'
_cell_length_a   5.25236000
_cell_length_b   8.57861805
_cell_length_c   9.39020957
_cell_angle_alpha   90.65545027
_cell_angle_beta   93.32646880
_cell_angle_gamma   92.16472748
_symmetry_Int_Tables_number   1
_chemical_formula_structural   Cu4NiC3
_chemical_formula_sum   'Cu16 Ni4 C12'
_cell_volume   422.05025056
_cell_formula_units_Z   4
loop_
 _symmetry_equiv_pos_site_id
 _symmetry_equiv_pos_as_xyz
  1  'x, y, z'
loop_
 _atom_site_type_symbol
 _atom_site_label
 _atom_site_symmetry_multiplicity
 _atom_site_fract_x
 _atom_site_fract_y
 _atom_site_fract_z
 _atom_site_occupancy
  C  C0  1  0.78221000  0.60939200  0.32086300  1
  C  C1  1  0.67310200  0.60961800  0.98336300  1
  C  C2  1  0.82263100  0.12342900  0.00866500  1
  C  C3  1  0.74414800  0.10398100  0.66433700  1
  C  C4  1  0.19579800  0.43686100  0.18200100  1
  C  C5  1  0.18194500  0.38069900  0.50972900  1
  C  C6  1  0.33928700  0.87167400  0.49253700  1
  C  C7  1  0.31928200  0.91023800  0.80678000  1
  C  C8  1  0.67563200  0.21799200  0.35371700  1
  C  C9  1  0.81254900  0.71240400  0.62990700  1
  C  C10  1  0.23359500  0.80072400  0.12911200  1
  C  C11  1  0.28509000  0.28079600  0.87071600  1
  Ni  Ni12  1  0.76355700  0.61030100  0.77409500  1
  Ni  Ni13  1  0.59051600  0.67736800  0.49736900  1
  Ni  Ni14  1  0.67586500  0.10490300  0.20990300  1
  Ni  Ni15  1  0.32903500  0.35549800  0.71243000  1
  Cu  Cu16  1  0.99518300  0.13852600  0.81359800  1
  Cu  Cu17  1  0.08523600  0.87183200  0.64117700  1
  Cu  Cu18  1  0.00310600  0.93201400  0.03014600  1
  Cu  Cu19  1  0.92182700  0.19785200  0.51145200  1
  Cu  Cu20  1  0.52657300  0.39988400  0.99573500  1
  Cu  Cu21  1  0.41561900  0.36988800  0.34399200  1
  Cu  Cu22  1  0.51341000  0.67344200  0.19562200  1
  Cu  Cu23  1  0.61488600  0.89550500  0.68505000  1
  Cu  Cu24  1  0.48974000  0.10091400  0.89156500  1
  Cu  Cu25  1  0.46155300  0.09878400  0.47770700  1
  Cu  Cu26  1  0.38529400  0.76136300  0.94612300  1
  Cu  Cu27  1  0.06661900  0.30775700  0.02876800  1
  Cu  Cu28  1  0.13390900  0.83938100  0.31863400  1
  Cu  Cu29  1  0.05676100  0.59381600  0.54178400  1
  Cu  Cu30  1  0.99828600  0.61690700  0.11776200  1
  Cu  Cu31  1  0.90775500  0.39625600  0.31536100  1
