# generated using pymatgen
data_Cu6Ni2C3
_symmetry_space_group_name_H-M   'P 1'
_cell_length_a   9.85872600
_cell_length_b   7.01680600
_cell_length_c   9.11028234
_cell_angle_alpha   64.12900793
_cell_angle_beta   90.00000000
_cell_angle_gamma   90.00000000
_symmetry_Int_Tables_number   1
_chemical_formula_structural   Cu6Ni2C3
_chemical_formula_sum   'Cu24 Ni8 C12'
_cell_volume   567.05849849
_cell_formula_units_Z   4
loop_
 _symmetry_equiv_pos_site_id
 _symmetry_equiv_pos_as_xyz
  1  'x, y, z'
loop_
 _atom_site_type_symbol
 _atom_site_label
 _atom_site_symmetry_multiplicity
 _atom_site_fract_x
 _atom_site_fract_y
 _atom_site_fract_z
 _atom_site_occupancy
  C  C0  1  0.39102400  0.63982900  0.84867100  1
  C  C1  1  0.68326400  0.84548800  0.56803300  1
  C  C2  1  0.10897600  0.63982900  0.34867100  1
  C  C3  1  0.81673600  0.84548800  0.06803300  1
  C  C4  1  0.18326400  0.15451200  0.93196700  1
  C  C5  1  0.89102400  0.36017100  0.65132900  1
  C  C6  1  0.31673600  0.15451200  0.43196700  1
  C  C7  1  0.60897600  0.36017100  0.15132900  1
  C  C8  1  0.87082000  0.51924800  0.92878800  1
  C  C9  1  0.62918000  0.51924800  0.42878800  1
  C  C10  1  0.37082000  0.48075200  0.57121200  1
  C  C11  1  0.12918000  0.48075200  0.07121200  1
  Ni  Ni12  1  0.02004600  0.92107800  0.86722900  1
  Ni  Ni13  1  0.47995400  0.92107800  0.36722900  1
  Ni  Ni14  1  0.61373700  0.47493100  0.78718400  1
  Ni  Ni15  1  0.11373700  0.52506900  0.71281600  1
  Ni  Ni16  1  0.88626300  0.47493100  0.28718400  1
  Ni  Ni17  1  0.38626300  0.52506900  0.21281600  1
  Ni  Ni18  1  0.52004600  0.07892200  0.63277100  1
  Ni  Ni19  1  0.97995400  0.07892200  0.13277100  1
  Cu  Cu20  1  0.53233600  0.87718200  0.70575200  1
  Cu  Cu21  1  0.90090400  0.83385900  0.87038900  1
  Cu  Cu22  1  0.96766400  0.87718200  0.20575200  1
  Cu  Cu23  1  0.59909600  0.83385900  0.37038900  1
  Cu  Cu24  1  0.37682600  0.80633500  0.44467900  1
  Cu  Cu25  1  0.66047400  0.46830500  0.92195600  1
  Cu  Cu26  1  0.98572200  0.55446600  0.72435700  1
  Cu  Cu27  1  0.19665300  0.48166000  0.83528400  1
  Cu  Cu28  1  0.69665300  0.51834000  0.66471600  1
  Cu  Cu29  1  0.48572200  0.44553400  0.77564300  1
  Cu  Cu30  1  0.12317400  0.80633500  0.94467900  1
  Cu  Cu31  1  0.16047400  0.53169500  0.57804400  1
  Cu  Cu32  1  0.83952600  0.46830500  0.42195600  1
  Cu  Cu33  1  0.87682600  0.19366500  0.05532100  1
  Cu  Cu34  1  0.51427800  0.55446600  0.22435700  1
  Cu  Cu35  1  0.30334700  0.48166000  0.33528400  1
  Cu  Cu36  1  0.80334700  0.51834000  0.16471600  1
  Cu  Cu37  1  0.01427800  0.44553400  0.27564300  1
  Cu  Cu38  1  0.33952600  0.53169500  0.07804400  1
  Cu  Cu39  1  0.62317400  0.19366500  0.55532100  1
  Cu  Cu40  1  0.40090400  0.16614100  0.62961100  1
  Cu  Cu41  1  0.03233600  0.12281800  0.79424800  1
  Cu  Cu42  1  0.09909600  0.16614100  0.12961100  1
  Cu  Cu43  1  0.46766400  0.12281800  0.29424800  1
