# generated using pymatgen
data_Cu6NiC6
_symmetry_space_group_name_H-M   'P 1'
_cell_length_a   7.79348000
_cell_length_b   7.89613132
_cell_length_c   9.29768147
_cell_angle_alpha   112.51171329
_cell_angle_beta   84.89263670
_cell_angle_gamma   107.06341857
_symmetry_Int_Tables_number   1
_chemical_formula_structural   Cu6NiC6
_chemical_formula_sum   'Cu24 Ni4 C24'
_cell_volume   505.12231475
_cell_formula_units_Z   4
loop_
 _symmetry_equiv_pos_site_id
 _symmetry_equiv_pos_as_xyz
  1  'x, y, z'
loop_
 _atom_site_type_symbol
 _atom_site_label
 _atom_site_symmetry_multiplicity
 _atom_site_fract_x
 _atom_site_fract_y
 _atom_site_fract_z
 _atom_site_occupancy
  C  C0  1  0.35792500  0.23194400  0.71112200  1
  C  C1  1  0.64207500  0.76805600  0.28887800  1
  Ni  Ni2  1  0.41571400  0.09773700  0.31999800  1
  Ni  Ni3  1  0.58428600  0.90226300  0.68000200  1
  Ni  Ni4  1  0.26984300  0.43532600  0.08599500  1
  Ni  Ni5  1  0.73015700  0.56467400  0.91400500  1
  Cu  Cu6  1  0.18623700  0.01347100  0.16803900  1
  Cu  Cu7  1  0.81376300  0.98652900  0.83196100  1
  Cu  Cu8  1  0.49065000  0.32098200  0.21463200  1
  Cu  Cu9  1  0.50935000  0.67901800  0.78536800  1
  Cu  Cu10  1  0.32268600  0.73675900  0.13845200  1
  Cu  Cu11  1  0.67731400  0.26324100  0.86154800  1
  Cu  Cu12  1  0.00004200  0.26739100  0.12763600  1
  Cu  Cu13  1  0.99995800  0.73260900  0.87236400  1
  Cu  Cu14  1  0.18488500  0.44002500  0.61660800  1
  Cu  Cu15  1  0.81511500  0.55997500  0.38339200  1
  Cu  Cu16  1  0.09588400  0.41409600  0.76795700  1
  Cu  Cu17  1  0.90411600  0.58590400  0.23204300  1
  Cu  Cu18  1  0.03120400  0.96147900  0.62761400  1
  Cu  Cu19  1  0.96879600  0.03852100  0.37238600  1
  Cu  Cu20  1  0.16437600  0.83383200  0.58135500  1
  Cu  Cu21  1  0.83562400  0.16616800  0.41864500  1
  Cu  Cu22  1  0.14095200  0.50005100  0.40763900  1
  Cu  Cu23  1  0.85904800  0.49994900  0.59236100  1
  Cu  Cu24  1  0.32454500  0.63163700  0.49394000  1
  Cu  Cu25  1  0.67545500  0.36836300  0.50606000  1
  Cu  Cu26  1  0.24253700  0.89572300  0.92656600  1
  Cu  Cu27  1  0.75746300  0.10427700  0.07343400  1
  Cu  Cu28  1  0.20462100  0.97765800  0.93662000  1
  Cu  Cu29  1  0.79537900  0.02234200  0.06338000  1
  C  C30  1  0.44974300  0.22222400  0.49039600  1
  C  C31  1  0.55025700  0.77777600  0.50960400  1
  C  C32  1  0.45803400  0.90680200  0.26664600  1
  C  C33  1  0.54196600  0.09319800  0.73335400  1
  C  C34  1  0.20551500  0.05739500  0.28061000  1
  C  C35  1  0.79448500  0.94260500  0.71939000  1
  C  C36  1  0.52145800  0.20391100  0.21150100  1
  C  C37  1  0.47854200  0.79608900  0.78849900  1
  C  C38  1  0.25498100  0.27169400  0.93179600  1
  C  C39  1  0.74501900  0.72830600  0.06820400  1
  C  C40  1  0.43426100  0.49942700  0.19174400  1
  C  C41  1  0.56573900  0.50057300  0.80825600  1
  C  C42  1  0.24060300  0.61377700  0.06318300  1
  C  C43  1  0.75939700  0.38622300  0.93681700  1
  C  C44  1  0.09999300  0.37225300  0.18871400  1
  C  C45  1  0.90000700  0.62774700  0.81128600  1
  C  C46  1  0.17007100  0.36182800  0.68199000  1
  C  C47  1  0.82992900  0.63817200  0.31801000  1
  C  C48  1  0.15872800  0.96687500  0.61576000  1
  C  C49  1  0.84127200  0.03312500  0.38424000  1
  C  C50  1  0.19497800  0.58205500  0.51186600  1
  C  C51  1  0.80502200  0.41794500  0.48813400  1
