# generated using pymatgen
data_Cu4Ni2C5
_symmetry_space_group_name_H-M   'P 1'
_cell_length_a   6.14242500
_cell_length_b   9.92805445
_cell_length_c   8.71401802
_cell_angle_alpha   80.84470968
_cell_angle_beta   90.00079361
_cell_angle_gamma   90.00000522
_symmetry_Int_Tables_number   1
_chemical_formula_structural   Cu4Ni2C5
_chemical_formula_sum   'Cu16 Ni8 C20'
_cell_volume   524.63145620
_cell_formula_units_Z   4
loop_
 _symmetry_equiv_pos_site_id
 _symmetry_equiv_pos_as_xyz
  1  'x, y, z'
loop_
 _atom_site_type_symbol
 _atom_site_label
 _atom_site_symmetry_multiplicity
 _atom_site_fract_x
 _atom_site_fract_y
 _atom_site_fract_z
 _atom_site_occupancy
  C  C0  1  0.99764900  0.24998500  0.50008200  1
  C  C1  1  0.49763200  0.24996500  0.99977600  1
  C  C2  1  0.49764100  0.74995800  0.00003200  1
  C  C3  1  0.99762300  0.74994800  0.49999100  1
  C  C4  1  0.34726500  0.68251000  0.74883600  1
  C  C5  1  0.84738600  0.18248200  0.24900200  1
  C  C6  1  0.14820600  0.68237700  0.24884900  1
  C  C7  1  0.64832700  0.18245800  0.74890100  1
  C  C8  1  0.14829500  0.31762700  0.75115000  1
  C  C9  1  0.64815100  0.81763700  0.25103300  1
  C  C10  1  0.34742300  0.31760700  0.25105200  1
  C  C11  1  0.84732000  0.81750200  0.75104600  1
  C  C12  1  0.01806100  0.44965500  0.64983900  1
  C  C13  1  0.51809000  0.94966500  0.14978500  1
  C  C14  1  0.47724800  0.55059700  0.85033300  1
  C  C15  1  0.97720100  0.05056500  0.35040000  1
  C  C16  1  0.47715900  0.44945900  0.14977700  1
  C  C17  1  0.97716100  0.94938500  0.64963300  1
  C  C18  1  0.01803000  0.55032800  0.35019000  1
  C  C19  1  0.51800000  0.05035700  0.85033400  1
  Ni  Ni20  1  0.38853500  0.63447900  0.85663600  1
  Ni  Ni21  1  0.88847600  0.13446200  0.35673900  1
  Ni  Ni22  1  0.10612600  0.36547100  0.64353600  1
  Ni  Ni23  1  0.60613100  0.86548300  0.14343200  1
  Ni  Ni24  1  0.10607300  0.63451900  0.35645500  1
  Ni  Ni25  1  0.60643100  0.13444900  0.85651200  1
  Ni  Ni26  1  0.38879100  0.36546900  0.14332300  1
  Ni  Ni27  1  0.88844600  0.86552000  0.64325000  1
  Cu  Cu28  1  0.91724700  0.59834000  0.63676700  1
  Cu  Cu29  1  0.41778900  0.09840500  0.13699200  1
  Cu  Cu30  1  0.57823700  0.40161600  0.86331300  1
  Cu  Cu31  1  0.07770800  0.90154300  0.36313300  1
  Cu  Cu32  1  0.57796000  0.59836200  0.13688800  1
  Cu  Cu33  1  0.07777900  0.09840900  0.63691200  1
  Cu  Cu34  1  0.91737800  0.40162000  0.36319700  1
  Cu  Cu35  1  0.41755600  0.90155600  0.86319800  1
  Cu  Cu36  1  0.76977300  0.75304200  0.91141000  1
  Cu  Cu37  1  0.26975600  0.25289100  0.41145400  1
  Cu  Cu38  1  0.22557700  0.74746600  0.08846700  1
  Cu  Cu39  1  0.72577800  0.24735800  0.58848700  1
  Cu  Cu40  1  0.22547700  0.25268100  0.91136500  1
  Cu  Cu41  1  0.72568200  0.75262800  0.41150100  1
  Cu  Cu42  1  0.76949000  0.24712600  0.08839900  1
  Cu  Cu43  1  0.26985500  0.74703800  0.58859200  1
