# generated using pymatgen
data_CuNi11C17
_symmetry_space_group_name_H-M   'P 1'
_cell_length_a   5.65447069
_cell_length_b   5.65447069
_cell_length_c   23.08250700
_cell_angle_alpha   90.00000000
_cell_angle_beta   90.00000000
_cell_angle_gamma   120.01304184
_symmetry_Int_Tables_number   1
_chemical_formula_structural   CuNi11C17
_chemical_formula_sum   'Cu2 Ni22 C34'
_cell_volume   639.05823037
_cell_formula_units_Z   2
loop_
 _symmetry_equiv_pos_site_id
 _symmetry_equiv_pos_as_xyz
  1  'x, y, z'
loop_
 _atom_site_type_symbol
 _atom_site_label
 _atom_site_symmetry_multiplicity
 _atom_site_fract_x
 _atom_site_fract_y
 _atom_site_fract_z
 _atom_site_occupancy
  Ni  Ni0  1  0.33464200  0.16721500  0.60538600  1
  Ni  Ni1  1  0.33464200  0.16721500  0.89461400  1
  Ni  Ni2  1  0.66761600  0.33380000  0.32480100  1
  Ni  Ni3  1  0.66662900  0.33327300  0.47528700  1
  Ni  Ni4  1  0.66761600  0.33380000  0.17519900  1
  Ni  Ni5  1  0.00014700  0.00014700  0.50000000  1
  Ni  Ni6  1  0.00014700  0.00014700  0.00000000  1
  Ni  Ni7  1  0.66662900  0.33327300  0.02471300  1
  Ni  Ni8  1  0.83263000  0.16719900  0.89461800  1
  Ni  Ni9  1  0.83263000  0.16719900  0.60538200  1
  Ni  Ni10  1  0.83275500  0.66546800  0.89484600  1
  Ni  Ni11  1  0.83275500  0.66546800  0.60515400  1
  Ni  Ni12  1  0.16721500  0.33464200  0.10538600  1
  Ni  Ni13  1  0.16721500  0.33464200  0.39461400  1
  Ni  Ni14  1  0.16719900  0.83263000  0.10538200  1
  Ni  Ni15  1  0.33380000  0.66761600  0.82480100  1
  Ni  Ni16  1  0.33380000  0.66761600  0.67519900  1
  Ni  Ni17  1  0.33327300  0.66662900  0.52471300  1
  Ni  Ni18  1  0.33327300  0.66662900  0.97528700  1
  Ni  Ni19  1  0.16719900  0.83263000  0.39461800  1
  Ni  Ni20  1  0.66546800  0.83275500  0.39484600  1
  Ni  Ni21  1  0.66546800  0.83275500  0.10515400  1
  Cu  Cu22  1  0.67888700  0.35778700  0.75000000  1
  Cu  Cu23  1  0.35778700  0.67888700  0.25000000  1
  C  C24  1  0.31413700  0.15705200  0.45098200  1
  C  C25  1  0.31413700  0.15705200  0.04901800  1
  C  C26  1  0.50179000  0.00356600  0.64363300  1
  C  C27  1  0.50179000  0.00356600  0.85636700  1
  C  C28  1  0.66566200  0.33279800  0.25000000  1
  C  C29  1  0.84289600  0.15700600  0.04898700  1
  C  C30  1  0.66670900  0.33336000  0.55481000  1
  C  C31  1  0.99983100  0.99988900  0.36043400  1
  C  C32  1  0.99983100  0.99988900  0.13956600  1
  C  C33  1  0.99988900  0.99983100  0.86043400  1
  C  C34  1  0.99988900  0.99983100  0.63956600  1
  C  C35  1  0.66670900  0.33336000  0.94519000  1
  C  C36  1  0.50160500  0.49887300  0.64355700  1
  C  C37  1  0.84289600  0.15700600  0.45101300  1
  C  C38  1  0.50160500  0.49887300  0.85644300  1
  C  C39  1  0.15705200  0.31413700  0.95098200  1
  C  C40  1  0.15705200  0.31413700  0.54901800  1
  C  C41  1  0.99727200  0.49886800  0.64355300  1
  C  C42  1  0.99727200  0.49886800  0.85644700  1
  C  C43  1  0.00356600  0.50179000  0.35636700  1
  C  C44  1  0.00356600  0.50179000  0.14363300  1
  C  C45  1  0.84294100  0.68584600  0.45101100  1
  C  C46  1  0.84294100  0.68584600  0.04898900  1
  C  C47  1  0.49887300  0.50160500  0.14355700  1
  C  C48  1  0.33279800  0.66566200  0.75000000  1
  C  C49  1  0.33336000  0.66670900  0.05481000  1
  C  C50  1  0.49887300  0.50160500  0.35644300  1
  C  C51  1  0.15700600  0.84289600  0.54898700  1
  C  C52  1  0.15700600  0.84289600  0.95101300  1
  C  C53  1  0.33336000  0.66670900  0.44519000  1
  C  C54  1  0.49886800  0.99727200  0.35644700  1
  C  C55  1  0.49886800  0.99727200  0.14355300  1
  C  C56  1  0.68584600  0.84294100  0.95101100  1
  C  C57  1  0.68584600  0.84294100  0.54898900  1
