# generated using pymatgen
data_Cu2NiC8
_symmetry_space_group_name_H-M   'P 1'
_cell_length_a   8.80152882
_cell_length_b   8.80152882
_cell_length_c   8.69110713
_cell_angle_alpha   67.98108578
_cell_angle_beta   67.98108578
_cell_angle_gamma   33.29751168
_symmetry_Int_Tables_number   1
_chemical_formula_structural   Cu2NiC8
_chemical_formula_sum   'Cu4 Ni2 C16'
_cell_volume   340.14308461
_cell_formula_units_Z   2
loop_
 _symmetry_equiv_pos_site_id
 _symmetry_equiv_pos_as_xyz
  1  'x, y, z'
loop_
 _atom_site_type_symbol
 _atom_site_label
 _atom_site_symmetry_multiplicity
 _atom_site_fract_x
 _atom_site_fract_y
 _atom_site_fract_z
 _atom_site_occupancy
  C  C0  1  0.15019500  0.44624500  0.57184400  1
  C  C1  1  0.44624500  0.15019500  0.07184400  1
  Ni  Ni2  1  0.50054400  0.50345500  0.99875800  1
  Ni  Ni3  1  0.50345500  0.50054400  0.49875800  1
  Cu  Cu4  1  0.24147500  0.94002400  0.68749400  1
  Cu  Cu5  1  0.05445400  0.76855600  0.81033900  1
  Cu  Cu6  1  0.94002400  0.24147500  0.18749400  1
  Cu  Cu7  1  0.76855600  0.05445400  0.31033900  1
  C  C8  1  0.38167800  0.79543500  0.84871400  1
  C  C9  1  0.25780500  0.57156900  0.94574900  1
  C  C10  1  0.13687100  0.19611400  0.62521900  1
  C  C11  1  0.97494500  0.02686100  0.74854300  1
  C  C12  1  0.80170400  0.86760000  0.87547700  1
  C  C13  1  0.43250800  0.74361100  0.55086500  1
  C  C14  1  0.20991300  0.61676000  0.65233000  1
  C  C15  1  0.79543500  0.38167800  0.34871400  1
  C  C16  1  0.57156900  0.25780500  0.44574900  1
  C  C17  1  0.19611400  0.13687100  0.12521900  1
  C  C18  1  0.02686100  0.97494500  0.24854300  1
  C  C19  1  0.86760000  0.80170400  0.37547700  1
  C  C20  1  0.74361100  0.43250800  0.05086500  1
  C  C21  1  0.61676000  0.20991300  0.15233000  1
