# generated using pymatgen
data_CuNiC6
_symmetry_space_group_name_H-M   'P 1'
_cell_length_a   5.04176700
_cell_length_b   6.33468600
_cell_length_c   10.76219800
_cell_angle_alpha   90.00000000
_cell_angle_beta   90.00000000
_cell_angle_gamma   90.00000000
_symmetry_Int_Tables_number   1
_chemical_formula_structural   CuNiC6
_chemical_formula_sum   'Cu4 Ni4 C24'
_cell_volume   343.72319628
_cell_formula_units_Z   4
loop_
 _symmetry_equiv_pos_site_id
 _symmetry_equiv_pos_as_xyz
  1  'x, y, z'
loop_
 _atom_site_type_symbol
 _atom_site_label
 _atom_site_symmetry_multiplicity
 _atom_site_fract_x
 _atom_site_fract_y
 _atom_site_fract_z
 _atom_site_occupancy
  C  C0  1  0.68326700  0.99872500  0.41235100  1
  C  C1  1  0.31673300  0.00127500  0.58764900  1
  C  C2  1  0.18326700  0.49872500  0.08764900  1
  C  C3  1  0.81673300  0.50127500  0.91235100  1
  C  C4  1  0.68326700  0.50127500  0.41235100  1
  C  C5  1  0.31673300  0.49872500  0.58764900  1
  C  C6  1  0.81673300  0.99872500  0.91235100  1
  C  C7  1  0.18326700  0.00127500  0.08764900  1
  Ni  Ni8  1  0.18559200  0.75000000  0.33813100  1
  Ni  Ni9  1  0.31440800  0.75000000  0.83813100  1
  Ni  Ni10  1  0.68559200  0.25000000  0.16186900  1
  Ni  Ni11  1  0.81440800  0.25000000  0.66186900  1
  Cu  Cu12  1  0.67463700  0.75000000  0.16467500  1
  Cu  Cu13  1  0.82536300  0.75000000  0.66467500  1
  Cu  Cu14  1  0.32536300  0.25000000  0.83532500  1
  Cu  Cu15  1  0.17463700  0.25000000  0.33532500  1
  C  C16  1  0.78580800  0.96444100  0.09326500  1
  C  C17  1  0.71419200  0.96444100  0.59326500  1
  C  C18  1  0.34707600  0.75000000  0.16101800  1
  C  C19  1  0.72615700  0.75000000  0.81185300  1
  C  C20  1  0.77384300  0.75000000  0.31185300  1
  C  C21  1  0.15292400  0.75000000  0.66101800  1
  C  C22  1  0.78580800  0.53555900  0.09326500  1
  C  C23  1  0.71419200  0.53555900  0.59326500  1
  C  C24  1  0.21419200  0.46444100  0.90673500  1
  C  C25  1  0.28580800  0.46444100  0.40673500  1
  C  C26  1  0.22615700  0.25000000  0.68814700  1
  C  C27  1  0.84707600  0.25000000  0.33898200  1
  C  C28  1  0.65292400  0.25000000  0.83898200  1
  C  C29  1  0.27384300  0.25000000  0.18814700  1
  C  C30  1  0.21419200  0.03555900  0.90673500  1
  C  C31  1  0.28580800  0.03555900  0.40673500  1
