# generated using pymatgen
data_CuNi3C10
_symmetry_space_group_name_H-M   'P 1'
_cell_length_a   5.87331863
_cell_length_b   5.87331911
_cell_length_c   5.87332003
_cell_angle_alpha   58.63970328
_cell_angle_beta   58.63971099
_cell_angle_gamma   58.63970270
_symmetry_Int_Tables_number   1
_chemical_formula_structural   CuNi3C10
_chemical_formula_sum   'Cu1 Ni3 C10'
_cell_volume   138.80904065
_cell_formula_units_Z   1
loop_
 _symmetry_equiv_pos_site_id
 _symmetry_equiv_pos_as_xyz
  1  'x, y, z'
loop_
 _atom_site_type_symbol
 _atom_site_label
 _atom_site_symmetry_multiplicity
 _atom_site_fract_x
 _atom_site_fract_y
 _atom_site_fract_z
 _atom_site_occupancy
  C  C0  1  0.12169000  0.12169000  0.12169000  1
  C  C1  1  0.87831000  0.87831000  0.87831000  1
  Ni  Ni2  1  0.00000000  0.50000000  0.50000000  1
  Ni  Ni3  1  0.50000000  0.00000000  0.50000000  1
  Ni  Ni4  1  0.50000000  0.50000000  0.00000000  1
  Cu  Cu5  1  0.50000000  0.50000000  0.50000000  1
  C  C6  1  0.26188500  0.26188500  0.26188500  1
  C  C7  1  0.25208900  0.25208900  0.70944300  1
  C  C8  1  0.25208900  0.70944300  0.25208900  1
  C  C9  1  0.70944300  0.25208900  0.25208900  1
  C  C10  1  0.29055700  0.74791100  0.74791100  1
  C  C11  1  0.74791100  0.29055700  0.74791100  1
  C  C12  1  0.74791100  0.74791100  0.29055700  1
  C  C13  1  0.73811500  0.73811500  0.73811500  1
