# generated using pymatgen
data_Cu20(NiC6)3
_symmetry_space_group_name_H-M   'P 1'
_cell_length_a   7.49634948
_cell_length_b   7.49634948
_cell_length_c   20.90578648
_cell_angle_alpha   83.57136219
_cell_angle_beta   83.57136219
_cell_angle_gamma   63.58005795
_symmetry_Int_Tables_number   1
_chemical_formula_structural   Cu20(NiC6)3
_chemical_formula_sum   'Cu40 Ni6 C36'
_cell_volume   1042.93771709
_cell_formula_units_Z   2
loop_
 _symmetry_equiv_pos_site_id
 _symmetry_equiv_pos_as_xyz
  1  'x, y, z'
loop_
 _atom_site_type_symbol
 _atom_site_label
 _atom_site_symmetry_multiplicity
 _atom_site_fract_x
 _atom_site_fract_y
 _atom_site_fract_z
 _atom_site_occupancy
  C  C0  1  0.10654200  0.26786400  0.09063500  1
  C  C1  1  0.73213600  0.89345800  0.40936500  1
  C  C2  1  0.89345800  0.73213600  0.90936500  1
  C  C3  1  0.26786400  0.10654200  0.59063500  1
  C  C4  1  0.48957100  0.13569100  0.99706500  1
  C  C5  1  0.86430900  0.51042900  0.50293500  1
  C  C6  1  0.51042900  0.86430900  0.00293500  1
  C  C7  1  0.13569100  0.48957100  0.49706500  1
  C  C8  1  0.22345900  0.65857000  0.97936100  1
  C  C9  1  0.34143000  0.77654100  0.52063900  1
  C  C10  1  0.77654100  0.34143000  0.02063900  1
  C  C11  1  0.65857000  0.22345900  0.47936100  1
  C  C12  1  0.17380100  0.42301700  0.27353300  1
  C  C13  1  0.57698300  0.82619900  0.22646700  1
  C  C14  1  0.82619900  0.57698300  0.72646700  1
  C  C15  1  0.42301700  0.17380100  0.77353300  1
  C  C16  1  0.30763600  0.38023100  0.16802000  1
  C  C17  1  0.61976900  0.69236400  0.33198000  1
  C  C18  1  0.69236400  0.61976900  0.83198000  1
  C  C19  1  0.38023100  0.30763600  0.66802000  1
  C  C20  1  0.55227300  0.42936700  0.12014600  1
  C  C21  1  0.57063300  0.44772700  0.37985400  1
  C  C22  1  0.44772700  0.57063300  0.87985400  1
  C  C23  1  0.42936700  0.55227300  0.62014600  1
  C  C24  1  0.79022600  0.14017200  0.05845700  1
  C  C25  1  0.85982800  0.20977400  0.44154300  1
  C  C26  1  0.20977400  0.85982800  0.94154300  1
  C  C27  1  0.14017200  0.79022600  0.55845700  1
  C  C28  1  0.54095700  0.81457100  0.19579400  1
  C  C29  1  0.18542900  0.45904300  0.30420600  1
  C  C30  1  0.45904300  0.18542900  0.80420600  1
  C  C31  1  0.81457100  0.54095700  0.69579400  1
  C  C32  1  0.37921900  0.61848700  0.15297500  1
  C  C33  1  0.38151300  0.62078100  0.34702500  1
  C  C34  1  0.62078100  0.38151300  0.84702500  1
  C  C35  1  0.61848700  0.37921900  0.65297500  1
  Ni  Ni36  1  0.04263700  0.27038000  0.92098300  1
  Ni  Ni37  1  0.72962000  0.95736300  0.57901700  1
  Ni  Ni38  1  0.95736300  0.72962000  0.07901700  1
  Ni  Ni39  1  0.27038000  0.04263700  0.42098300  1
  Ni  Ni40  1  0.76297500  0.23702500  0.25000000  1
  Ni  Ni41  1  0.23702500  0.76297500  0.75000000  1
  Cu  Cu42  1  0.14152100  0.11698900  0.97388500  1
  Cu  Cu43  1  0.88301100  0.85847900  0.52611500  1
  Cu  Cu44  1  0.85847900  0.88301100  0.02611500  1
  Cu  Cu45  1  0.11698900  0.14152100  0.47388500  1
  Cu  Cu46  1  0.16238200  0.38344800  0.89733500  1
  Cu  Cu47  1  0.61655200  0.83761800  0.60266500  1
  Cu  Cu48  1  0.83761800  0.61655200  0.10266500  1
  Cu  Cu49  1  0.38344800  0.16238200  0.39733500  1
  Cu  Cu50  1  0.85344800  0.43446500  0.95389100  1
  Cu  Cu51  1  0.56553500  0.14655200  0.54610900  1
  Cu  Cu52  1  0.14655200  0.56553500  0.04610900  1
  Cu  Cu53  1  0.43446500  0.85344800  0.45389100  1
  Cu  Cu54  1  0.99319500  0.18488400  0.87081800  1
  Cu  Cu55  1  0.81511600  0.00680500  0.62918200  1
  Cu  Cu56  1  0.00680500  0.81511600  0.12918200  1
  Cu  Cu57  1  0.18488400  0.99319500  0.37081800  1
  Cu  Cu58  1  0.91527900  0.19051300  0.19674000  1
  Cu  Cu59  1  0.80948700  0.08472100  0.30326000  1
  Cu  Cu60  1  0.08472100  0.80948700  0.80326000  1
  Cu  Cu61  1  0.19051300  0.91527900  0.69674000  1
  Cu  Cu62  1  0.46071400  0.47476800  0.15899600  1
  Cu  Cu63  1  0.52523200  0.53928600  0.34100400  1
  Cu  Cu64  1  0.53928600  0.52523200  0.84100400  1
  Cu  Cu65  1  0.47476800  0.46071400  0.65899600  1
  Cu  Cu66  1  0.44222300  0.16477900  0.04396400  1
  Cu  Cu67  1  0.83522100  0.55777700  0.45603600  1
  Cu  Cu68  1  0.55777700  0.83522100  0.95603600  1
  Cu  Cu69  1  0.16477900  0.44222300  0.54396400  1
  Cu  Cu70  1  0.21196800  0.31703900  0.16762200  1
  Cu  Cu71  1  0.68296100  0.78803200  0.33237800  1
  Cu  Cu72  1  0.78803200  0.68296100  0.83237800  1
  Cu  Cu73  1  0.31703900  0.21196800  0.66762200  1
  Cu  Cu74  1  0.77741300  0.27436800  0.06521100  1
  Cu  Cu75  1  0.72563200  0.22258700  0.43478900  1
  Cu  Cu76  1  0.22258700  0.72563200  0.93478900  1
  Cu  Cu77  1  0.27436800  0.77741300  0.56521100  1
  Cu  Cu78  1  0.40232100  0.99617000  0.06956900  1
  Cu  Cu79  1  0.00383000  0.59767900  0.43043100  1
  Cu  Cu80  1  0.59767900  0.00383000  0.93043100  1
  Cu  Cu81  1  0.99617000  0.40232100  0.56956900  1
