# generated using pymatgen
data_Cu(NiC2)3
_symmetry_space_group_name_H-M   'P 1'
_cell_length_a   7.48641465
_cell_length_b   7.48642134
_cell_length_c   9.02340477
_cell_angle_alpha   110.57333246
_cell_angle_beta   70.41222513
_cell_angle_gamma   80.07522595
_symmetry_Int_Tables_number   1
_chemical_formula_structural   Cu(NiC2)3
_chemical_formula_sum   'Cu4 Ni12 C24'
_cell_volume   421.24737374
_cell_formula_units_Z   4
loop_
 _symmetry_equiv_pos_site_id
 _symmetry_equiv_pos_as_xyz
  1  'x, y, z'
loop_
 _atom_site_type_symbol
 _atom_site_label
 _atom_site_symmetry_multiplicity
 _atom_site_fract_x
 _atom_site_fract_y
 _atom_site_fract_z
 _atom_site_occupancy
  C  C0  1  0.01745600  0.00026100  0.98280500  1
  C  C1  1  0.01745100  0.50026500  0.48281200  1
  C  C2  1  0.73254500  0.12473400  0.39219000  1
  C  C3  1  0.73254100  0.62473900  0.89219800  1
  C  C4  1  0.03109900  0.34009800  0.88308100  1
  C  C5  1  0.03111300  0.84009800  0.38307500  1
  C  C6  1  0.29298700  0.71081600  0.99191800  1
  C  C7  1  0.29298000  0.21081000  0.49192400  1
  C  C8  1  0.45701100  0.91418200  0.88308200  1
  C  C9  1  0.45702000  0.41418800  0.38307700  1
  C  C10  1  0.71889800  0.28490500  0.99191700  1
  C  C11  1  0.71888400  0.78490500  0.49192400  1
  C  C12  1  0.22051300  0.53659100  0.75102400  1
  C  C13  1  0.22051900  0.03657700  0.25101800  1
  C  C14  1  0.78557000  0.97153900  0.75102200  1
  C  C15  1  0.78555800  0.47154100  0.25101700  1
  C  C16  1  0.52947700  0.58841900  0.62398600  1
  C  C17  1  0.52948300  0.08840400  0.12398000  1
  C  C18  1  0.96443800  0.15345900  0.62398400  1
  C  C19  1  0.96442900  0.65346200  0.12397900  1
  C  C20  1  0.50211300  0.74530500  0.24319500  1
  C  C21  1  0.24790500  0.87968900  0.63179100  1
  C  C22  1  0.50212700  0.24530200  0.74317500  1
  C  C23  1  0.24788500  0.37968100  0.13180000  1
  Ni  Ni24  1  0.22898100  0.45850800  0.93750100  1
  Ni  Ni25  1  0.22898400  0.95852000  0.43750700  1
  Ni  Ni26  1  0.52101200  0.16648800  0.93750600  1
  Ni  Ni27  1  0.52100900  0.66648000  0.43750300  1
  Ni  Ni28  1  0.77109600  0.03842000  0.56401000  1
  Ni  Ni29  1  0.77109600  0.53841000  0.06399500  1
  Ni  Ni30  1  0.47439900  0.33510600  0.56400900  1
  Ni  Ni31  1  0.47440800  0.83509200  0.06399400  1
  Ni  Ni32  1  0.27557900  0.78990400  0.81101200  1
  Ni  Ni33  1  0.27559200  0.28990200  0.31100300  1
  Ni  Ni34  1  0.97890300  0.08660300  0.81101800  1
  Ni  Ni35  1  0.97889800  0.58658700  0.31100100  1
  Cu  Cu36  1  0.01894700  0.41856000  0.68751000  1
  Cu  Cu37  1  0.01896300  0.91855900  0.18748900  1
  Cu  Cu38  1  0.73105700  0.70644600  0.68749400  1
  Cu  Cu39  1  0.73107600  0.20644400  0.18747300  1
