# generated using pymatgen
data_CuNiC7
_symmetry_space_group_name_H-M   'P 1'
_cell_length_a   11.69062368
_cell_length_b   11.69062368
_cell_length_c   4.87253300
_cell_angle_alpha   90.00000000
_cell_angle_beta   90.00000000
_cell_angle_gamma   119.99999819
_symmetry_Int_Tables_number   1
_chemical_formula_structural   CuNiC7
_chemical_formula_sum   'Cu6 Ni6 C42'
_cell_volume   576.71439329
_cell_formula_units_Z   6
loop_
 _symmetry_equiv_pos_site_id
 _symmetry_equiv_pos_as_xyz
  1  'x, y, z'
loop_
 _atom_site_type_symbol
 _atom_site_label
 _atom_site_symmetry_multiplicity
 _atom_site_fract_x
 _atom_site_fract_y
 _atom_site_fract_z
 _atom_site_occupancy
  C  C0  1  0.50592400  0.85957600  0.92924100  1
  C  C1  1  0.35365200  0.49407600  0.92924100  1
  C  C2  1  0.14042400  0.64634800  0.92924100  1
  C  C3  1  0.49407600  0.35365200  0.92924100  1
  C  C4  1  0.85957600  0.50592400  0.92924100  1
  C  C5  1  0.64634800  0.14042400  0.92924100  1
  C  C6  1  0.66138700  0.82877900  0.48181200  1
  C  C7  1  0.16739100  0.33861300  0.48181200  1
  C  C8  1  0.17122100  0.83260900  0.48181200  1
  C  C9  1  0.33861300  0.16739100  0.48181200  1
  C  C10  1  0.82877900  0.66138700  0.48181200  1
  C  C11  1  0.83260900  0.17122100  0.48181200  1
  Ni  Ni12  1  0.33333300  0.66666700  0.42637200  1
  Ni  Ni13  1  0.66666700  0.33333300  0.42637200  1
  Ni  Ni14  1  0.00000000  0.34900800  0.00920300  1
  Ni  Ni15  1  0.34900800  0.00000000  0.00920300  1
  Ni  Ni16  1  0.65099200  0.65099200  0.00920300  1
  Ni  Ni17  1  0.00000000  0.00000000  0.96874900  1
  Cu  Cu18  1  0.00000000  0.50371100  0.46358900  1
  Cu  Cu19  1  0.50371100  0.00000000  0.46358900  1
  Cu  Cu20  1  0.49628900  0.49628900  0.46358900  1
  Cu  Cu21  1  0.00000000  0.10857700  0.84454500  1
  Cu  Cu22  1  0.10857700  0.00000000  0.84454500  1
  Cu  Cu23  1  0.89142300  0.89142300  0.84454500  1
  C  C24  1  0.00000000  0.76257700  0.67802100  1
  C  C25  1  0.76257700  0.00000000  0.67802100  1
  C  C26  1  0.23742300  0.23742300  0.67802100  1
  C  C27  1  0.47554300  0.76015600  0.31722900  1
  C  C28  1  0.28461300  0.52445700  0.31722900  1
  C  C29  1  0.23984400  0.71538700  0.31722900  1
  C  C30  1  0.52445700  0.28461300  0.31722900  1
  C  C31  1  0.76015600  0.47554300  0.31722900  1
  C  C32  1  0.71538700  0.23984400  0.31722900  1
  C  C33  1  0.00000000  0.26615400  0.26657000  1
  C  C34  1  0.26615400  0.00000000  0.26657000  1
  C  C35  1  0.73384600  0.73384600  0.26657000  1
  C  C36  1  0.60742000  0.73537500  0.84345800  1
  C  C37  1  0.12795500  0.39258000  0.84345800  1
  C  C38  1  0.26462500  0.87204500  0.84345800  1
  C  C39  1  0.39258000  0.12795500  0.84345800  1
  C  C40  1  0.73537500  0.60742000  0.84345800  1
  C  C41  1  0.87204500  0.26462500  0.84345800  1
  C  C42  1  0.00000000  0.47166000  0.13239500  1
  C  C43  1  0.47166000  0.00000000  0.13239500  1
  C  C44  1  0.52834000  0.52834000  0.13239500  1
  C  C45  1  0.33333300  0.66666700  0.74949000  1
  C  C46  1  0.66666700  0.33333300  0.74949000  1
  C  C47  1  0.00000000  0.70922300  0.96366100  1
  C  C48  1  0.70922300  0.00000000  0.96366100  1
  C  C49  1  0.29077700  0.29077700  0.96366100  1
  C  C50  1  0.00000000  0.53530600  0.64921600  1
  C  C51  1  0.53530600  0.00000000  0.64921600  1
  C  C52  1  0.46469400  0.46469400  0.64921600  1
  C  C53  1  0.00000000  0.00000000  0.27977200  1
