# generated using pymatgen
data_Cu3(NiC7)2
_symmetry_space_group_name_H-M   'P 1'
_cell_length_a   9.28830500
_cell_length_b   9.33983700
_cell_length_c   12.89355900
_cell_angle_alpha   90.00000000
_cell_angle_beta   90.00000000
_cell_angle_gamma   90.00000000
_symmetry_Int_Tables_number   1
_chemical_formula_structural   Cu3(NiC7)2
_chemical_formula_sum   'Cu12 Ni8 C56'
_cell_volume   1118.53242088
_cell_formula_units_Z   4
loop_
 _symmetry_equiv_pos_site_id
 _symmetry_equiv_pos_as_xyz
  1  'x, y, z'
loop_
 _atom_site_type_symbol
 _atom_site_label
 _atom_site_symmetry_multiplicity
 _atom_site_fract_x
 _atom_site_fract_y
 _atom_site_fract_z
 _atom_site_occupancy
  C  C0  1  0.21977400  0.27251200  0.18602200  1
  C  C1  1  0.78022600  0.77251200  0.18602200  1
  C  C2  1  0.28022600  0.77251200  0.31397800  1
  C  C3  1  0.71977400  0.27251200  0.31397800  1
  C  C4  1  0.28022600  0.72748800  0.68602200  1
  C  C5  1  0.71977400  0.22748800  0.68602200  1
  C  C6  1  0.21977400  0.22748800  0.81397800  1
  C  C7  1  0.78022600  0.72748800  0.81397800  1
  Ni  Ni8  1  0.25288000  0.96538300  0.11847500  1
  Ni  Ni9  1  0.74712000  0.46538300  0.11847500  1
  Ni  Ni10  1  0.75288000  0.96538300  0.38152500  1
  Ni  Ni11  1  0.24712000  0.46538300  0.38152500  1
  Ni  Ni12  1  0.24712000  0.03461700  0.61847500  1
  Ni  Ni13  1  0.75288000  0.53461700  0.61847500  1
  Ni  Ni14  1  0.25288000  0.53461700  0.88152500  1
  Ni  Ni15  1  0.74712000  0.03461700  0.88152500  1
  Cu  Cu16  1  0.45867100  0.25000000  0.00000000  1
  Cu  Cu17  1  0.54132900  0.75000000  0.00000000  1
  Cu  Cu18  1  0.10045900  0.60557400  0.14485300  1
  Cu  Cu19  1  0.89954100  0.10557400  0.14485300  1
  Cu  Cu20  1  0.39954100  0.10557400  0.35514700  1
  Cu  Cu21  1  0.60045900  0.60557400  0.35514700  1
  Cu  Cu22  1  0.04132900  0.75000000  0.50000000  1
  Cu  Cu23  1  0.95867100  0.25000000  0.50000000  1
  Cu  Cu24  1  0.39954100  0.39442600  0.64485300  1
  Cu  Cu25  1  0.60045900  0.89442600  0.64485300  1
  Cu  Cu26  1  0.10045900  0.89442600  0.85514700  1
  Cu  Cu27  1  0.89954100  0.39442600  0.85514700  1
  C  C28  1  0.13884700  0.57285000  0.02272800  1
  C  C29  1  0.86115300  0.07285000  0.02272800  1
  C  C30  1  0.55974400  0.36866800  0.06017900  1
  C  C31  1  0.44025600  0.86866800  0.06017900  1
  C  C32  1  0.35199200  0.16913900  0.08842700  1
  C  C33  1  0.64800800  0.66913900  0.08842700  1
  C  C34  1  0.07943100  0.11107400  0.16082200  1
  C  C35  1  0.92056900  0.61107400  0.16082200  1
  C  C36  1  0.17141900  0.76356800  0.17918200  1
  C  C37  1  0.82858100  0.26356800  0.17918200  1
  C  C38  1  0.83038800  0.97462700  0.21928400  1
  C  C39  1  0.16961200  0.47462700  0.21928400  1
  C  C40  1  0.33038800  0.97462700  0.28071600  1
  C  C41  1  0.66961200  0.47462700  0.28071600  1
  C  C42  1  0.67141900  0.76356800  0.32081800  1
  C  C43  1  0.32858100  0.26356800  0.32081800  1
  C  C44  1  0.42056900  0.61107400  0.33917800  1
  C  C45  1  0.57943100  0.11107400  0.33917800  1
  C  C46  1  0.14800800  0.66913900  0.41157300  1
  C  C47  1  0.85199200  0.16913900  0.41157300  1
  C  C48  1  0.05974400  0.36866800  0.43982100  1
  C  C49  1  0.94025600  0.86866800  0.43982100  1
  C  C50  1  0.63884700  0.57285000  0.47727200  1
  C  C51  1  0.36115300  0.07285000  0.47727200  1
  C  C52  1  0.36115300  0.42715000  0.52272800  1
  C  C53  1  0.63884700  0.92715000  0.52272800  1
  C  C54  1  0.05974400  0.13133200  0.56017900  1
  C  C55  1  0.94025600  0.63133200  0.56017900  1
  C  C56  1  0.14800800  0.83086100  0.58842700  1
  C  C57  1  0.85199200  0.33086100  0.58842700  1
  C  C58  1  0.42056900  0.88892600  0.66082200  1
  C  C59  1  0.57943100  0.38892600  0.66082200  1
  C  C60  1  0.32858100  0.23643200  0.67918200  1
  C  C61  1  0.67141900  0.73643200  0.67918200  1
  C  C62  1  0.33038800  0.52537300  0.71928400  1
  C  C63  1  0.66961200  0.02537300  0.71928400  1
  C  C64  1  0.16961200  0.02537300  0.78071600  1
  C  C65  1  0.83038800  0.52537300  0.78071600  1
  C  C66  1  0.17141900  0.73643200  0.82081800  1
  C  C67  1  0.82858100  0.23643200  0.82081800  1
  C  C68  1  0.07943100  0.38892600  0.83917800  1
  C  C69  1  0.92056900  0.88892600  0.83917800  1
  C  C70  1  0.35199200  0.33086100  0.91157300  1
  C  C71  1  0.64800800  0.83086100  0.91157300  1
  C  C72  1  0.44025600  0.63133200  0.93982100  1
  C  C73  1  0.55974400  0.13133200  0.93982100  1
  C  C74  1  0.13884700  0.92715000  0.97727200  1
  C  C75  1  0.86115300  0.42715000  0.97727200  1
