# generated using pymatgen
data_Cu4NiC2
_symmetry_space_group_name_H-M   'P 1'
_cell_length_a   10.08983030
_cell_length_b   10.04430215
_cell_length_c   9.96005392
_cell_angle_alpha   60.57888840
_cell_angle_beta   60.12366024
_cell_angle_gamma   59.29745136
_symmetry_Int_Tables_number   1
_chemical_formula_structural   Cu4NiC2
_chemical_formula_sum   'Cu32 Ni8 C16'
_cell_volume   713.57405030
_cell_formula_units_Z   8
loop_
 _symmetry_equiv_pos_site_id
 _symmetry_equiv_pos_as_xyz
  1  'x, y, z'
loop_
 _atom_site_type_symbol
 _atom_site_label
 _atom_site_symmetry_multiplicity
 _atom_site_fract_x
 _atom_site_fract_y
 _atom_site_fract_z
 _atom_site_occupancy
  C  C0  1  0.79481900  0.79481900  0.20518100  1
  C  C1  1  0.79100700  0.20899300  0.79100700  1
  C  C2  1  0.79136500  0.20863500  0.20863500  1
  C  C3  1  0.54281500  0.54281500  0.95718500  1
  C  C4  1  0.20863500  0.79136500  0.79136500  1
  C  C5  1  0.53971800  0.96028200  0.96028200  1
  C  C6  1  0.20518100  0.20518100  0.79481900  1
  C  C7  1  0.20899300  0.79100700  0.20899300  1
  C  C8  1  0.96028200  0.53971800  0.53971800  1
  C  C9  1  0.95718500  0.95718500  0.54281500  1
  C  C10  1  0.37032700  0.37656600  0.87583600  1
  C  C11  1  0.37727100  0.87583600  0.37656600  1
  C  C12  1  0.37656600  0.37032700  0.37727100  1
  C  C13  1  0.87583600  0.37727100  0.37032700  1
  C  C14  1  0.75000000  0.75000000  0.75000000  1
  C  C15  1  0.00000000  0.00000000  0.00000000  1
  Ni  Ni16  1  0.59110300  0.59318900  0.58779800  1
  Ni  Ni17  1  0.52353600  0.16364300  0.15292500  1
  Ni  Ni18  1  0.15292500  0.15989500  0.52353600  1
  Ni  Ni19  1  0.16364300  0.52353600  0.15989500  1
  Ni  Ni20  1  0.58779800  0.22791100  0.59110300  1
  Ni  Ni21  1  0.59318900  0.59110300  0.22791100  1
  Ni  Ni22  1  0.22791100  0.58779800  0.59318900  1
  Ni  Ni23  1  0.15989500  0.15292500  0.16364300  1
  Cu  Cu24  1  0.73470800  0.47648700  0.56630000  1
  Cu  Cu25  1  0.52956200  0.02315200  0.17472900  1
  Cu  Cu26  1  0.56776600  0.72634900  0.46715000  1
  Cu  Cu27  1  0.52151900  0.27999800  0.01215600  1
  Cu  Cu28  1  0.47901400  0.57316000  0.72867300  1
  Cu  Cu29  1  0.81207400  0.56102500  0.80837100  1
  Cu  Cu30  1  0.81852900  0.80837100  0.56102500  1
  Cu  Cu31  1  0.52625800  0.19016500  0.26611200  1
  Cu  Cu32  1  0.19016500  0.52625800  0.01746500  1
  Cu  Cu33  1  0.26611200  0.01746500  0.52625800  1
  Cu  Cu34  1  0.80837100  0.81852900  0.81207400  1
  Cu  Cu35  1  0.56102500  0.81207400  0.81852900  1
  Cu  Cu36  1  0.57316000  0.47901400  0.21915300  1
  Cu  Cu37  1  0.72867300  0.21915300  0.47901400  1
  Cu  Cu38  1  0.27999800  0.52151900  0.18632700  1
  Cu  Cu39  1  0.01215600  0.18632700  0.52151900  1
  Cu  Cu40  1  0.72634900  0.56776600  0.23873500  1
  Cu  Cu41  1  0.46715000  0.23873500  0.56776600  1
  Cu  Cu42  1  0.17472900  0.27255600  0.52956200  1
  Cu  Cu43  1  0.02315200  0.52956200  0.27255600  1
  Cu  Cu44  1  0.19000000  0.93386000  0.93869100  1
  Cu  Cu45  1  0.93744900  0.93869100  0.93386000  1
  Cu  Cu46  1  0.47648700  0.73470800  0.22250500  1
  Cu  Cu47  1  0.56630000  0.22250500  0.73470800  1
  Cu  Cu48  1  0.22250500  0.56630000  0.47648700  1
  Cu  Cu49  1  0.93869100  0.93744900  0.19000000  1
  Cu  Cu50  1  0.93386000  0.19000000  0.93744900  1
  Cu  Cu51  1  0.27255600  0.17472900  0.02315200  1
  Cu  Cu52  1  0.23873500  0.46715000  0.72634900  1
  Cu  Cu53  1  0.18632700  0.01215600  0.27999800  1
  Cu  Cu54  1  0.21915300  0.72867300  0.57316000  1
  Cu  Cu55  1  0.01746500  0.26611200  0.19016500  1
