# generated using pymatgen
data_CuNi3C10
_symmetry_space_group_name_H-M   'P 1'
_cell_length_a   8.51397200
_cell_length_b   8.51464959
_cell_length_c   8.51715627
_cell_angle_alpha   89.78794101
_cell_angle_beta   89.80555274
_cell_angle_gamma   89.94048125
_symmetry_Int_Tables_number   1
_chemical_formula_structural   CuNi3C10
_chemical_formula_sum   'Cu4 Ni12 C40'
_cell_volume   617.43025833
_cell_formula_units_Z   4
loop_
 _symmetry_equiv_pos_site_id
 _symmetry_equiv_pos_as_xyz
  1  'x, y, z'
loop_
 _atom_site_type_symbol
 _atom_site_label
 _atom_site_symmetry_multiplicity
 _atom_site_fract_x
 _atom_site_fract_y
 _atom_site_fract_z
 _atom_site_occupancy
  C  C0  1  0.99922200  0.99993700  0.00023700  1
  C  C1  1  0.24983300  0.25078800  0.75021900  1
  C  C2  1  0.75094100  0.74882500  0.75129500  1
  C  C3  1  0.49902000  0.00049300  0.50052100  1
  C  C4  1  0.00180200  0.50178000  0.50096700  1
  C  C5  1  0.74767700  0.24783700  0.24865900  1
  C  C6  1  0.24987300  0.75106600  0.24964700  1
  C  C7  1  0.50156300  0.49943900  0.99848600  1
  Ni  Ni8  1  0.62723200  0.11864100  0.87125800  1
  Ni  Ni9  1  0.87263800  0.37709300  0.87602300  1
  Ni  Ni10  1  0.13051100  0.62364700  0.87817300  1
  Ni  Ni11  1  0.62913900  0.37705200  0.62431400  1
  Ni  Ni12  1  0.37544000  0.62954000  0.62096700  1
  Ni  Ni13  1  0.11864100  0.87589300  0.62818300  1
  Ni  Ni14  1  0.37634800  0.37067900  0.38128700  1
  Ni  Ni15  1  0.12213800  0.12787000  0.37464300  1
  Ni  Ni16  1  0.87849900  0.87462200  0.36903500  1
  Ni  Ni17  1  0.37478900  0.13275600  0.12090000  1
  Ni  Ni18  1  0.61911300  0.87349700  0.12927000  1
  Ni  Ni19  1  0.87407500  0.62193800  0.12614300  1
  Cu  Cu20  1  0.37424100  0.87568800  0.87490700  1
  Cu  Cu21  1  0.87496500  0.12428800  0.62534800  1
  Cu  Cu22  1  0.62443900  0.62540200  0.37500400  1
  Cu  Cu23  1  0.12593800  0.37509600  0.12483100  1
  C  C24  1  0.39180800  0.12825000  0.89797500  1
  C  C25  1  0.62950600  0.89723200  0.89261700  1
  C  C26  1  0.88678000  0.61095300  0.88864100  1
  C  C27  1  0.85839500  0.14794300  0.87506800  1
  C  C28  1  0.10203300  0.39163700  0.87597300  1
  C  C29  1  0.63914700  0.36335300  0.86125000  1
  C  C30  1  0.35252900  0.62079700  0.85733000  1
  C  C31  1  0.12112000  0.85788000  0.85167300  1
  C  C32  1  0.62077400  0.14350400  0.64767400  1
  C  C33  1  0.85434700  0.37558200  0.64138000  1
  C  C34  1  0.13827000  0.63825100  0.63786700  1
  C  C35  1  0.60213800  0.60651600  0.62897900  1
  C  C36  1  0.35926200  0.85248300  0.62652000  1
  C  C37  1  0.38700600  0.38651200  0.61087200  1
  C  C38  1  0.12927400  0.10150800  0.60611700  1
  C  C39  1  0.89126900  0.87477700  0.60213600  1
  C  C40  1  0.60794300  0.37393300  0.39667700  1
  C  C41  1  0.37513000  0.60266600  0.39197500  1
  C  C42  1  0.11119400  0.88716100  0.38706400  1
  C  C43  1  0.14190700  0.35372200  0.37516700  1
  C  C44  1  0.89629800  0.10796600  0.37378400  1
  C  C45  1  0.36284700  0.13899300  0.36300000  1
  C  C46  1  0.64731900  0.87573400  0.35802900  1
  C  C47  1  0.87505000  0.64184600  0.35361800  1
  C  C48  1  0.37621300  0.35893600  0.14776000  1
  C  C49  1  0.14855800  0.12072600  0.14395100  1
  C  C50  1  0.86370600  0.86248100  0.13928400  1
  C  C51  1  0.39716900  0.89051900  0.12334900  1
  C  C52  1  0.64358800  0.64769400  0.12110700  1
  C  C53  1  0.61128900  0.11157900  0.11191600  1
  C  C54  1  0.87347500  0.39587800  0.10857000  1
  C  C55  1  0.10673000  0.62926600  0.10236100  1
