# generated using pymatgen
data_Cu2Ni4C
_symmetry_space_group_name_H-M   'P 1'
_cell_length_a   14.23802731
_cell_length_b   14.23802731
_cell_length_c   14.23802731
_cell_angle_alpha   135.55641549
_cell_angle_beta   135.55641549
_cell_angle_gamma   64.66687442
_symmetry_Int_Tables_number   1
_chemical_formula_structural   Cu2Ni4C
_chemical_formula_sum   'Cu32 Ni64 C16'
_cell_volume   1395.29859432
_cell_formula_units_Z   16
loop_
 _symmetry_equiv_pos_site_id
 _symmetry_equiv_pos_as_xyz
  1  'x, y, z'
loop_
 _atom_site_type_symbol
 _atom_site_label
 _atom_site_symmetry_multiplicity
 _atom_site_fract_x
 _atom_site_fract_y
 _atom_site_fract_z
 _atom_site_occupancy
  C  C0  1  0.27003700  0.86814500  0.04526200  1
  C  C1  1  0.77003700  0.72477600  0.40189300  1
  C  C2  1  0.11814500  0.02003700  0.54526200  1
  C  C3  1  0.61814500  0.07288300  0.09810700  1
  C  C4  1  0.47996300  0.38185500  0.45473800  1
  C  C5  1  0.97996300  0.52522400  0.09810700  1
  C  C6  1  0.63185500  0.22996300  0.95473800  1
  C  C7  1  0.13185500  0.17711700  0.40189300  1
  C  C8  1  0.32288300  0.36814500  0.59810700  1
  C  C9  1  0.82288300  0.22477600  0.95473800  1
  C  C10  1  0.97477600  0.52003700  0.90189300  1
  C  C11  1  0.47477600  0.57288300  0.45473800  1
  C  C12  1  0.42711700  0.88185500  0.90189300  1
  C  C13  1  0.92711700  0.02522400  0.54526200  1
  C  C14  1  0.77522400  0.72996300  0.59810700  1
  C  C15  1  0.27522400  0.67711700  0.04526200  1
  Ni  Ni16  1  0.44685400  0.33931800  0.14799300  1
  Ni  Ni17  1  0.94685400  0.79886000  0.10753600  1
  Ni  Ni18  1  0.58931800  0.19685400  0.64799300  1
  Ni  Ni19  1  0.08931800  0.44132400  0.39246400  1
  Ni  Ni20  1  0.30314600  0.91068200  0.35200700  1
  Ni  Ni21  1  0.80314600  0.45114000  0.39246400  1
  Ni  Ni22  1  0.16068200  0.05314600  0.85200700  1
  Ni  Ni23  1  0.66068200  0.80867600  0.10753600  1
  Ni  Ni24  1  0.69132400  0.83931800  0.89246400  1
  Ni  Ni25  1  0.19132400  0.29886000  0.85200700  1
  Ni  Ni26  1  0.04886000  0.69685400  0.60753600  1
  Ni  Ni27  1  0.54886000  0.94132400  0.35200700  1
  Ni  Ni28  1  0.05867600  0.41068200  0.60753600  1
  Ni  Ni29  1  0.55867600  0.95114000  0.64799300  1
  Ni  Ni30  1  0.70114000  0.55314600  0.89246400  1
  Ni  Ni31  1  0.20114000  0.30867600  0.14799300  1
  Ni  Ni32  1  0.46340100  0.95750200  0.14464500  1
  Ni  Ni33  1  0.96340100  0.81875500  0.50589900  1
  Ni  Ni34  1  0.20750200  0.21340100  0.64464500  1
  Ni  Ni35  1  0.70750200  0.06285600  0.99410100  1
  Ni  Ni36  1  0.28659900  0.29249800  0.35535500  1
  Ni  Ni37  1  0.78659900  0.43124500  0.99410100  1
  Ni  Ni38  1  0.54249800  0.03659900  0.85535500  1
  Ni  Ni39  1  0.04249800  0.18714400  0.50589900  1
  Ni  Ni40  1  0.31285600  0.45750200  0.49410100  1
  Ni  Ni41  1  0.81285600  0.31875500  0.85535500  1
  Ni  Ni42  1  0.06875500  0.71340100  0.00589900  1
  Ni  Ni43  1  0.56875500  0.56285600  0.35535500  1
  Ni  Ni44  1  0.43714400  0.79249800  0.00589900  1
  Ni  Ni45  1  0.93714400  0.93124500  0.64464500  1
  Ni  Ni46  1  0.68124500  0.53659900  0.49410100  1
  Ni  Ni47  1  0.18124500  0.68714400  0.14464500  1
  Ni  Ni48  1  0.45299000  0.29832400  0.07944400  1
  Ni  Ni49  1  0.95299000  0.87354500  0.15466600  1
  Ni  Ni50  1  0.54832400  0.20299000  0.57944400  1
  Ni  Ni51  1  0.04832400  0.46888000  0.34533400  1
  Ni  Ni52  1  0.29701000  0.95167600  0.42055600  1
  Ni  Ni53  1  0.79701000  0.37645500  0.34533400  1
  Ni  Ni54  1  0.20167600  0.04701000  0.92055600  1
  Ni  Ni55  1  0.70167600  0.78112000  0.15466600  1
  Ni  Ni56  1  0.71888000  0.79832400  0.84533400  1
  Ni  Ni57  1  0.21888000  0.37354500  0.92055600  1
  Ni  Ni58  1  0.12354500  0.70299000  0.65466600  1
  Ni  Ni59  1  0.62354500  0.96888000  0.42055600  1
  Ni  Ni60  1  0.03112000  0.45167600  0.65466600  1
  Ni  Ni61  1  0.53112000  0.87645500  0.57944400  1
  Ni  Ni62  1  0.62645500  0.54701000  0.84533400  1
  Ni  Ni63  1  0.12645500  0.28112000  0.07944400  1
  Ni  Ni64  1  0.54027800  0.42594100  0.41872900  1
  Ni  Ni65  1  0.04027800  0.62154900  0.11433700  1
  Ni  Ni66  1  0.67594100  0.29027800  0.91872900  1
  Ni  Ni67  1  0.17594100  0.25721200  0.38566300  1
  Ni  Ni68  1  0.20972200  0.82405900  0.08127100  1
  Ni  Ni69  1  0.70972200  0.62845100  0.38566300  1
  Ni  Ni70  1  0.07405900  0.95972200  0.58127100  1
  Ni  Ni71  1  0.57405900  0.99278800  0.11433700  1
  Ni  Ni72  1  0.50721200  0.92594100  0.88566300  1
  Ni  Ni73  1  0.00721200  0.12154900  0.58127100  1
  Ni  Ni74  1  0.87154900  0.79027800  0.61433700  1
  Ni  Ni75  1  0.37154900  0.75721200  0.08127100  1
  Ni  Ni76  1  0.24278800  0.32405900  0.61433700  1
  Ni  Ni77  1  0.74278800  0.12845100  0.91872900  1
  Ni  Ni78  1  0.87845100  0.45972200  0.88566300  1
  Ni  Ni79  1  0.37845100  0.49278800  0.41872900  1
  Cu  Cu80  1  0.06180400  0.06180400  0.00000000  1
  Cu  Cu81  1  0.56180400  0.56180400  0.00000000  1
  Cu  Cu82  1  0.31180400  0.81180400  0.50000000  1
  Cu  Cu83  1  0.81180400  0.31180400  0.50000000  1
  Cu  Cu84  1  0.68819600  0.18819600  0.50000000  1
  Cu  Cu85  1  0.18819600  0.68819600  0.50000000  1
  Cu  Cu86  1  0.43819600  0.43819600  0.00000000  1
  Cu  Cu87  1  0.93819600  0.93819600  0.00000000  1
  Cu  Cu88  1  0.39108100  0.87500000  0.01608100  1
  Cu  Cu89  1  0.89108100  0.87500000  0.51608100  1
  Cu  Cu90  1  0.12500000  0.14108100  0.51608100  1
  Cu  Cu91  1  0.62500000  0.10891900  0.98391900  1
  Cu  Cu92  1  0.35891900  0.37500000  0.48391900  1
  Cu  Cu93  1  0.85891900  0.37500000  0.98391900  1
  Cu  Cu94  1  0.12500000  0.64108100  0.01608100  1
  Cu  Cu95  1  0.62500000  0.60891900  0.48391900  1
  Cu  Cu96  1  0.85184400  0.41519200  0.64151600  1
  Cu  Cu97  1  0.35184400  0.71032800  0.43665300  1
  Cu  Cu98  1  0.66519200  0.60184400  0.14151600  1
  Cu  Cu99  1  0.16519200  0.02367500  0.06334700  1
  Cu  Cu100  1  0.89815600  0.83480800  0.85848400  1
  Cu  Cu101  1  0.39815600  0.53967200  0.06334700  1
  Cu  Cu102  1  0.08480800  0.64815600  0.35848400  1
  Cu  Cu103  1  0.58480800  0.22632500  0.43665300  1
  Cu  Cu104  1  0.27367500  0.91519200  0.56334700  1
  Cu  Cu105  1  0.77367500  0.21032800  0.35848400  1
  Cu  Cu106  1  0.96032800  0.10184400  0.93665300  1
  Cu  Cu107  1  0.46032800  0.52367500  0.85848400  1
  Cu  Cu108  1  0.47632500  0.33480800  0.93665300  1
  Cu  Cu109  1  0.97632500  0.03967200  0.14151600  1
  Cu  Cu110  1  0.78967200  0.14815600  0.56334700  1
  Cu  Cu111  1  0.28967200  0.72632500  0.64151600  1
