# generated using pymatgen
data_CuNiC
_symmetry_space_group_name_H-M   'P 1'
_cell_length_a   4.77181926
_cell_length_b   4.77181926
_cell_length_c   12.22597100
_cell_angle_alpha   90.00000000
_cell_angle_beta   90.00000000
_cell_angle_gamma   90.04477791
_symmetry_Int_Tables_number   1
_chemical_formula_structural   CuNiC
_chemical_formula_sum   'Cu8 Ni8 C8'
_cell_volume   278.38844184
_cell_formula_units_Z   8
loop_
 _symmetry_equiv_pos_site_id
 _symmetry_equiv_pos_as_xyz
  1  'x, y, z'
loop_
 _atom_site_type_symbol
 _atom_site_label
 _atom_site_symmetry_multiplicity
 _atom_site_fract_x
 _atom_site_fract_y
 _atom_site_fract_z
 _atom_site_occupancy
  C  C0  1  0.03642000  0.96358000  0.00000000  1
  C  C1  1  0.94526200  0.01755000  0.25000000  1
  C  C2  1  0.03642000  0.96358000  0.50000000  1
  C  C3  1  0.98245000  0.05473800  0.75000000  1
  C  C4  1  0.52907300  0.52876900  0.12464300  1
  C  C5  1  0.47123100  0.47092700  0.62464300  1
  C  C6  1  0.47123100  0.47092700  0.87535700  1
  C  C7  1  0.52907300  0.52876900  0.37535700  1
  Ni  Ni8  1  0.18285600  0.18501700  0.62206500  1
  Ni  Ni9  1  0.18285600  0.18501700  0.87793500  1
  Ni  Ni10  1  0.68640300  0.32699800  0.25000000  1
  Ni  Ni11  1  0.67300200  0.31359700  0.75000000  1
  Ni  Ni12  1  0.32087200  0.67912800  0.00000000  1
  Ni  Ni13  1  0.32087200  0.67912800  0.50000000  1
  Ni  Ni14  1  0.81498300  0.81714400  0.12206500  1
  Ni  Ni15  1  0.81498300  0.81714400  0.37793500  1
  Cu  Cu16  1  0.20235300  0.19987700  0.12709600  1
  Cu  Cu17  1  0.20235300  0.19987700  0.37290400  1
  Cu  Cu18  1  0.70425800  0.29574200  0.00000000  1
  Cu  Cu19  1  0.70425800  0.29574200  0.50000000  1
  Cu  Cu20  1  0.30489900  0.71635400  0.25000000  1
  Cu  Cu21  1  0.28364600  0.69510100  0.75000000  1
  Cu  Cu22  1  0.80012300  0.79764700  0.62709600  1
  Cu  Cu23  1  0.80012300  0.79764700  0.87290400  1
