# generated using pymatgen
data_CuNiC2
_symmetry_space_group_name_H-M   'P 1'
_cell_length_a   6.71355684
_cell_length_b   6.71355684
_cell_length_c   8.24499213
_cell_angle_alpha   88.29416992
_cell_angle_beta   88.29416992
_cell_angle_gamma   125.65804319
_symmetry_Int_Tables_number   1
_chemical_formula_structural   CuNiC2
_chemical_formula_sum   'Cu4 Ni4 C8'
_cell_volume   301.30053699
_cell_formula_units_Z   4
loop_
 _symmetry_equiv_pos_site_id
 _symmetry_equiv_pos_as_xyz
  1  'x, y, z'
loop_
 _atom_site_type_symbol
 _atom_site_label
 _atom_site_symmetry_multiplicity
 _atom_site_fract_x
 _atom_site_fract_y
 _atom_site_fract_z
 _atom_site_occupancy
  Ni  Ni0  1  0.66861300  0.85186200  0.43263400  1
  Ni  Ni1  1  0.14813800  0.33138700  0.06736600  1
  Ni  Ni2  1  0.33138700  0.14813800  0.56736600  1
  Ni  Ni3  1  0.85186200  0.66861300  0.93263400  1
  Cu  Cu4  1  0.55338100  0.95435700  0.86121000  1
  Cu  Cu5  1  0.44661900  0.04564300  0.13879000  1
  Cu  Cu6  1  0.95435700  0.55338100  0.36121000  1
  Cu  Cu7  1  0.04564300  0.44661900  0.63879000  1
  C  C8  1  0.86567900  0.13432100  0.75000000  1
  C  C9  1  0.67912700  0.32087300  0.25000000  1
  C  C10  1  0.13432100  0.86567900  0.25000000  1
  C  C11  1  0.32087300  0.67912700  0.75000000  1
  C  C12  1  0.86721400  0.58019600  0.57850800  1
  C  C13  1  0.41980400  0.13278600  0.92149200  1
  C  C14  1  0.13278600  0.41980400  0.42149200  1
  C  C15  1  0.58019600  0.86721400  0.07850800  1
