# generated using pymatgen
data_Cu(NiC4)5
_symmetry_space_group_name_H-M   'P 1'
_cell_length_a   5.16002000
_cell_length_b   8.96060779
_cell_length_c   13.62493286
_cell_angle_alpha   90.23518252
_cell_angle_beta   90.11956698
_cell_angle_gamma   90.20035579
_symmetry_Int_Tables_number   1
_chemical_formula_structural   Cu(NiC4)5
_chemical_formula_sum   'Cu2 Ni10 C40'
_cell_volume   629.96431825
_cell_formula_units_Z   2
loop_
 _symmetry_equiv_pos_site_id
 _symmetry_equiv_pos_as_xyz
  1  'x, y, z'
loop_
 _atom_site_type_symbol
 _atom_site_label
 _atom_site_symmetry_multiplicity
 _atom_site_fract_x
 _atom_site_fract_y
 _atom_site_fract_z
 _atom_site_occupancy
  Ni  Ni0  1  0.23979100  0.08305900  0.87503800  1
  Ni  Ni1  1  0.23979600  0.08205000  0.37575300  1
  Ni  Ni2  1  0.75183500  0.25859200  0.99933700  1
  Ni  Ni3  1  0.75232300  0.25892200  0.75081300  1
  Ni  Ni4  1  0.75198600  0.25875400  0.49881400  1
  Ni  Ni5  1  0.75225600  0.25852400  0.25097900  1
  Ni  Ni6  1  0.24732800  0.74107400  0.74762500  1
  Ni  Ni7  1  0.24765500  0.74182400  0.25017300  1
  Ni  Ni8  1  0.24772400  0.74155600  0.00121400  1
  Ni  Ni9  1  0.76014600  0.91585000  0.62311000  1
  Cu  Cu10  1  0.24013100  0.73316200  0.50348900  1
  Cu  Cu11  1  0.75576100  0.91456600  0.12511400  1
  C  C12  1  0.22188400  0.36191300  0.62483100  1
  C  C13  1  0.22247500  0.36154800  0.12531500  1
  C  C14  1  0.77754300  0.63978500  0.87514200  1
  C  C15  1  0.77875300  0.64082100  0.37611700  1
  C  C16  1  0.29901600  0.41328200  0.37646900  1
  C  C17  1  0.29781400  0.41085000  0.87516600  1
  C  C18  1  0.70278500  0.59089900  0.62352000  1
  C  C19  1  0.70252900  0.59353000  0.12529100  1
  C  C20  1  0.26362500  0.05682200  0.62244900  1
  C  C21  1  0.26524000  0.05496700  0.12522000  1
  C  C22  1  0.73478400  0.93914100  0.37629700  1
  C  C23  1  0.73554600  0.94012300  0.87473100  1
  C  C24  1  0.71445500  0.08470700  0.87475000  1
  C  C25  1  0.71323200  0.08382200  0.37481100  1
  C  C26  1  0.02931200  0.10720500  0.12500700  1
  C  C27  1  0.03733100  0.12043300  0.62462300  1
  C  C28  1  0.46267800  0.14659600  0.12536100  1
  C  C29  1  0.47054200  0.14081000  0.62518200  1
  C  C30  1  0.21466700  0.31859100  0.96663100  1
  C  C31  1  0.21517400  0.31869800  0.78307100  1
  C  C32  1  0.21664300  0.31863900  0.46691600  1
  C  C33  1  0.21106800  0.32340000  0.28391800  1
  C  C34  1  0.59941100  0.42801400  0.87546200  1
  C  C35  1  0.60092300  0.42828200  0.37493500  1
  C  C36  1  0.81811200  0.43094800  0.62514900  1
  C  C37  1  0.82465800  0.43487000  0.12494500  1
  C  C38  1  0.17729000  0.56911600  0.87503400  1
  C  C39  1  0.18336300  0.57343100  0.38057500  1
  C  C40  1  0.39943700  0.57734500  0.61854600  1
  C  C41  1  0.40154500  0.57287800  0.12524000  1
  C  C42  1  0.78081600  0.68155000  0.71669600  1
  C  C43  1  0.79977000  0.68200100  0.53387100  1
  C  C44  1  0.78513100  0.68799200  0.21636500  1
  C  C45  1  0.78347100  0.68795900  0.03448800  1
  C  C46  1  0.52891800  0.85624000  0.87433600  1
  C  C47  1  0.52832100  0.85486500  0.37784900  1
  C  C48  1  0.96263700  0.87790000  0.87478500  1
  C  C49  1  0.96238000  0.87743600  0.37634900  1
  C  C50  1  0.30673800  0.91255400  0.12532400  1
  C  C51  1  0.28325600  0.91210500  0.61777900  1
