# generated using pymatgen
data_CuNiC10
_symmetry_space_group_name_H-M   'P 1'
_cell_length_a   5.07988100
_cell_length_b   10.03253612
_cell_length_c   11.16778702
_cell_angle_alpha   106.09222172
_cell_angle_beta   88.42501498
_cell_angle_gamma   96.35065400
_symmetry_Int_Tables_number   1
_chemical_formula_structural   CuNiC10
_chemical_formula_sum   'Cu4 Ni4 C40'
_cell_volume   543.49598842
_cell_formula_units_Z   4
loop_
 _symmetry_equiv_pos_site_id
 _symmetry_equiv_pos_as_xyz
  1  'x, y, z'
loop_
 _atom_site_type_symbol
 _atom_site_label
 _atom_site_symmetry_multiplicity
 _atom_site_fract_x
 _atom_site_fract_y
 _atom_site_fract_z
 _atom_site_occupancy
  C  C0  1  0.71568900  0.12014100  0.84619500  1
  C  C1  1  0.69305800  0.61223400  0.34352800  1
  C  C2  1  0.60214900  0.33288200  0.08713600  1
  C  C3  1  0.35756900  0.10295500  0.30368300  1
  C  C4  1  0.32906400  0.61462800  0.85232900  1
  C  C5  1  0.23369800  0.31296000  0.53839100  1
  C  C6  1  0.18603500  0.68039800  0.57136000  1
  C  C7  1  0.19830400  0.88761600  0.04657600  1
  C  C8  1  0.78061800  0.42087000  0.73635700  1
  C  C9  1  0.78512600  0.91885500  0.24128800  1
  C  C10  1  0.16637100  0.00310400  0.63999700  1
  C  C11  1  0.16055800  0.50734100  0.13839100  1
  Ni  Ni12  1  0.69961600  0.12326900  0.52518600  1
  Ni  Ni13  1  0.69871100  0.62463700  0.02236000  1
  Ni  Ni14  1  0.24901000  0.30266300  0.85640800  1
  Ni  Ni15  1  0.25047600  0.80215500  0.35215500  1
  Cu  Cu16  1  0.72942700  0.06594300  0.09413200  1
  Cu  Cu17  1  0.65182700  0.55142600  0.58494600  1
  Cu  Cu18  1  0.23457300  0.36744100  0.28714600  1
  Cu  Cu19  1  0.28458100  0.87739400  0.79386800  1
  C  C20  1  0.96094800  0.04277200  0.12671700  1
  C  C21  1  0.81995200  0.01316800  0.57222000  1
  C  C22  1  0.85726600  0.26888800  0.58157100  1
  C  C23  1  0.89977900  0.55034100  0.61284600  1
  C  C24  1  0.70741200  0.08648000  0.38047900  1
  C  C25  1  0.80669900  0.50733800  0.06796800  1
  C  C26  1  0.71705300  0.59197900  0.87839600  1
  C  C27  1  0.85885000  0.76596800  0.08419800  1
  C  C28  1  0.54457700  0.29444200  0.81362100  1
  C  C29  1  0.69183900  0.14341600  0.02601500  1
  C  C30  1  0.57068100  0.61599300  0.51344200  1
  C  C31  1  0.40122100  0.13246500  0.56261900  1
  C  C32  1  0.48210600  0.47832800  0.64171200  1
  C  C33  1  0.43181700  0.44242300  0.24435900  1
  C  C34  1  0.54424200  0.78738600  0.31049700  1
  C  C35  1  0.27983900  0.29538300  0.35978700  1
  C  C36  1  0.45270700  0.97254400  0.76747200  1
  C  C37  1  0.32178700  0.81501700  0.87630800  1
  C  C38  1  0.39837300  0.62929000  0.05536500  1
  C  C39  1  0.52794100  0.00056600  0.14217000  1
  C  C40  1  0.08302600  0.16223600  0.79703400  1
  C  C41  1  0.24901800  0.33741600  0.00043600  1
  C  C42  1  0.13147100  0.42080100  0.81475900  1
  C  C43  1  0.22979500  0.83398900  0.49465200  1
  C  C44  1  0.00335400  0.37577800  0.24537400  1
  C  C45  1  0.07908300  0.66181600  0.29409400  1
  C  C46  1  0.14795700  0.92070000  0.30645900  1
  C  C47  1  0.06754200  0.84764400  0.72541200  1
