# generated using pymatgen
data_Cu3Ni
_symmetry_space_group_name_H-M   'P 1'
_cell_length_a   6.92605947
_cell_length_b   6.92605947
_cell_length_c   6.92605963
_cell_angle_alpha   43.76579290
_cell_angle_beta   43.76579290
_cell_angle_gamma   43.76579060
_symmetry_Int_Tables_number   1
_chemical_formula_structural   Cu3Ni
_chemical_formula_sum   'Cu9 Ni3'
_cell_volume   144.31583362
_cell_formula_units_Z   3
loop_
 _symmetry_equiv_pos_site_id
 _symmetry_equiv_pos_as_xyz
  1  'x, y, z'
loop_
 _atom_site_type_symbol
 _atom_site_label
 _atom_site_symmetry_multiplicity
 _atom_site_fract_x
 _atom_site_fract_y
 _atom_site_fract_z
 _atom_site_occupancy
  Ni  Ni0  1  0.00000000  0.00000000  0.00000000  1
  Ni  Ni1  1  0.21843100  0.21843100  0.21843100  1
  Ni  Ni2  1  0.78156900  0.78156900  0.78156900  1
  Cu  Cu3  1  0.50000000  0.50000000  0.00000000  1
  Cu  Cu4  1  0.50000000  0.00000000  0.50000000  1
  Cu  Cu5  1  0.00000000  0.50000000  0.50000000  1
  Cu  Cu6  1  0.24188200  0.71394100  0.71394100  1
  Cu  Cu7  1  0.71394100  0.71394100  0.24188200  1
  Cu  Cu8  1  0.71394100  0.24188200  0.71394100  1
  Cu  Cu9  1  0.28605900  0.75811800  0.28605900  1
  Cu  Cu10  1  0.75811800  0.28605900  0.28605900  1
  Cu  Cu11  1  0.28605900  0.28605900  0.75811800  1
