# generated using pymatgen
data_Cu3Ni2C3
_symmetry_space_group_name_H-M   'P 1'
_cell_length_a   5.24986299
_cell_length_b   5.24986299
_cell_length_c   9.91043840
_cell_angle_alpha   89.51563851
_cell_angle_beta   89.51563851
_cell_angle_gamma   43.11478338
_symmetry_Int_Tables_number   1
_chemical_formula_structural   Cu3Ni2C3
_chemical_formula_sum   'Cu6 Ni4 C6'
_cell_volume   186.67464315
_cell_formula_units_Z   2
loop_
 _symmetry_equiv_pos_site_id
 _symmetry_equiv_pos_as_xyz
  1  'x, y, z'
loop_
 _atom_site_type_symbol
 _atom_site_label
 _atom_site_symmetry_multiplicity
 _atom_site_fract_x
 _atom_site_fract_y
 _atom_site_fract_z
 _atom_site_occupancy
  C  C0  1  0.85303400  0.85303400  0.56532000  1
  C  C1  1  0.85338600  0.85338600  0.94111100  1
  C  C2  1  0.79866500  0.79866500  0.24891900  1
  C  C3  1  0.20144100  0.20144100  0.75757600  1
  C  C4  1  0.14165100  0.14165100  0.05559900  1
  C  C5  1  0.13351600  0.13351600  0.44032700  1
  Ni  Ni6  1  0.69361700  0.69361700  0.42771600  1
  Ni  Ni7  1  0.69016400  0.69016400  0.07800500  1
  Ni  Ni8  1  0.76382000  0.76382000  0.74531300  1
  Ni  Ni9  1  0.30785400  0.30785400  0.92687500  1
  Cu  Cu10  1  0.95345900  0.95345900  0.11815200  1
  Cu  Cu11  1  0.95662500  0.95662500  0.37765000  1
  Cu  Cu12  1  0.04679300  0.04679300  0.61544700  1
  Cu  Cu13  1  0.04666500  0.04666500  0.88108500  1
  Cu  Cu14  1  0.31449200  0.31449200  0.57018100  1
  Cu  Cu15  1  0.24482600  0.24482600  0.25072500  1
