# generated using pymatgen
data_Cu(NiC3)2
_symmetry_space_group_name_H-M   'P 1'
_cell_length_a   6.89854700
_cell_length_b   9.64783045
_cell_length_c   10.00715912
_cell_angle_alpha   78.92385222
_cell_angle_beta   70.17756379
_cell_angle_gamma   81.94919241
_symmetry_Int_Tables_number   1
_chemical_formula_structural   Cu(NiC3)2
_chemical_formula_sum   'Cu6 Ni12 C36'
_cell_volume   612.87412171
_cell_formula_units_Z   6
loop_
 _symmetry_equiv_pos_site_id
 _symmetry_equiv_pos_as_xyz
  1  'x, y, z'
loop_
 _atom_site_type_symbol
 _atom_site_label
 _atom_site_symmetry_multiplicity
 _atom_site_fract_x
 _atom_site_fract_y
 _atom_site_fract_z
 _atom_site_occupancy
  C  C0  1  0.89066100  0.88414900  0.46752600  1
  C  C1  1  0.84067700  0.58434400  0.79982300  1
  C  C2  1  0.15932300  0.41565600  0.20017700  1
  C  C3  1  0.10933900  0.11585100  0.53247400  1
  Ni  Ni4  1  0.99488900  0.86185900  0.76275000  1
  Ni  Ni5  1  0.54394200  0.86435300  0.77086400  1
  Ni  Ni6  1  0.21289800  0.67550100  0.94882800  1
  Ni  Ni7  1  0.25983400  0.61716800  0.35065600  1
  Ni  Ni8  1  0.65051900  0.60385500  0.12393800  1
  Ni  Ni9  1  0.79310100  0.60766700  0.37893700  1
  Ni  Ni10  1  0.20689900  0.39233300  0.62106300  1
  Ni  Ni11  1  0.34948100  0.39614500  0.87606200  1
  Ni  Ni12  1  0.74016600  0.38283200  0.64934400  1
  Ni  Ni13  1  0.78710200  0.32449900  0.05117200  1
  Ni  Ni14  1  0.45605800  0.13564700  0.22913600  1
  Ni  Ni15  1  0.00511100  0.13814100  0.23725000  1
  Cu  Cu16  1  0.42381100  0.86514300  0.47228700  1
  Cu  Cu17  1  0.84870000  0.89114500  0.09766200  1
  Cu  Cu18  1  0.35182000  0.88303600  0.10763200  1
  Cu  Cu19  1  0.64818000  0.11696400  0.89236800  1
  Cu  Cu20  1  0.15130000  0.10885500  0.90233800  1
  Cu  Cu21  1  0.57618900  0.13485700  0.52771300  1
  C  C22  1  0.93951400  0.97704000  0.87495000  1
  C  C23  1  0.44392300  0.97525100  0.88603900  1
  C  C24  1  0.13444500  0.91548900  0.60153400  1
  C  C25  1  0.53247300  0.93015700  0.61429700  1
  C  C26  1  0.78955900  0.80920100  0.74301200  1
  C  C27  1  0.06896400  0.70748000  0.84327800  1
  C  C28  1  0.27604400  0.78412200  0.34562400  1
  C  C29  1  0.44252900  0.71335100  0.84079600  1
  C  C30  1  0.65086400  0.76991900  0.06488100  1
  C  C31  1  0.72041800  0.77317900  0.38425000  1
  C  C32  1  0.12696100  0.76531800  0.07919900  1
  C  C33  1  0.23643400  0.50127100  0.99892600  1
  C  C34  1  0.22676000  0.44578500  0.76016500  1
  C  C35  1  0.04044500  0.56966300  0.35398500  1
  C  C36  1  0.41172200  0.56178200  0.20084300  1
  C  C37  1  0.31654300  0.50807800  0.48131700  1
  C  C38  1  0.68345700  0.49192200  0.51868300  1
  C  C39  1  0.58827800  0.43821800  0.79915700  1
  C  C40  1  0.95955500  0.43033700  0.64601500  1
  C  C41  1  0.77324000  0.55421500  0.23983500  1
  C  C42  1  0.76356600  0.49872900  0.00107400  1
  C  C43  1  0.87303900  0.23468200  0.92080100  1
  C  C44  1  0.27958200  0.22682100  0.61575000  1
  C  C45  1  0.34913600  0.23008100  0.93511900  1
  C  C46  1  0.55747100  0.28664900  0.15920400  1
  C  C47  1  0.72395600  0.21587800  0.65437600  1
  C  C48  1  0.93103600  0.29252000  0.15672200  1
  C  C49  1  0.21044100  0.19079900  0.25698800  1
  C  C50  1  0.46752700  0.06984300  0.38570300  1
  C  C51  1  0.86555500  0.08451100  0.39846600  1
  C  C52  1  0.55607700  0.02474900  0.11396100  1
  C  C53  1  0.06048600  0.02296000  0.12505000  1
