# generated using pymatgen
data_Cu3NiC4
_symmetry_space_group_name_H-M   'P 1'
_cell_length_a   7.44143400
_cell_length_b   7.63695700
_cell_length_c   8.18429938
_cell_angle_alpha   83.59528089
_cell_angle_beta   90.00000000
_cell_angle_gamma   90.00000000
_symmetry_Int_Tables_number   1
_chemical_formula_structural   Cu3NiC4
_chemical_formula_sum   'Cu12 Ni4 C16'
_cell_volume   462.21011579
_cell_formula_units_Z   4
loop_
 _symmetry_equiv_pos_site_id
 _symmetry_equiv_pos_as_xyz
  1  'x, y, z'
loop_
 _atom_site_type_symbol
 _atom_site_label
 _atom_site_symmetry_multiplicity
 _atom_site_fract_x
 _atom_site_fract_y
 _atom_site_fract_z
 _atom_site_occupancy
  C  C0  1  0.12471700  0.38477900  0.35308700  1
  C  C1  1  0.62471700  0.11522100  0.64691300  1
  C  C2  1  0.87528300  0.61522100  0.64691300  1
  C  C3  1  0.37528300  0.88477900  0.35308700  1
  C  C4  1  0.67632400  0.38455700  0.97296400  1
  C  C5  1  0.17632400  0.11544300  0.02703600  1
  C  C6  1  0.32367600  0.61544300  0.02703600  1
  C  C7  1  0.82367600  0.88455700  0.97296400  1
  C  C8  1  0.82716600  0.27376600  0.10162700  1
  C  C9  1  0.32716600  0.22623400  0.89837300  1
  C  C10  1  0.17283400  0.72623400  0.89837300  1
  C  C11  1  0.67283400  0.77376600  0.10162700  1
  C  C12  1  0.60588800  0.40487300  0.25000800  1
  C  C13  1  0.10588800  0.09512700  0.74999200  1
  C  C14  1  0.39411200  0.59512700  0.74999200  1
  C  C15  1  0.89411200  0.90487300  0.25000800  1
  Ni  Ni16  1  0.75768900  0.39126700  0.07535900  1
  Ni  Ni17  1  0.25768900  0.10873300  0.92464100  1
  Ni  Ni18  1  0.24231100  0.60873300  0.92464100  1
  Ni  Ni19  1  0.74231100  0.89126700  0.07535900  1
  Cu  Cu20  1  0.45878500  0.24058800  0.27405800  1
  Cu  Cu21  1  0.95878500  0.25941200  0.72594200  1
  Cu  Cu22  1  0.54121500  0.75941200  0.72594200  1
  Cu  Cu23  1  0.04121500  0.74058800  0.27405800  1
  Cu  Cu24  1  0.74120700  0.40323300  0.41103200  1
  Cu  Cu25  1  0.24120700  0.09676700  0.58896800  1
  Cu  Cu26  1  0.25879300  0.59676700  0.58896800  1
  Cu  Cu27  1  0.75879300  0.90323300  0.41103200  1
  Cu  Cu28  1  0.49776500  0.59598500  0.20445300  1
  Cu  Cu29  1  0.99776500  0.90401500  0.79554700  1
  Cu  Cu30  1  0.50223500  0.40401500  0.79554700  1
  Cu  Cu31  1  0.00223500  0.09598500  0.20445300  1
