# generated using pymatgen
data_Cu3NiC34
_symmetry_space_group_name_H-M   'P 1'
_cell_length_a   8.88418246
_cell_length_b   8.88418246
_cell_length_c   8.88418259
_cell_angle_alpha   56.98487422
_cell_angle_beta   56.98487422
_cell_angle_gamma   56.98487608
_symmetry_Int_Tables_number   1
_chemical_formula_structural   Cu3NiC34
_chemical_formula_sum   'Cu3 Ni1 C34'
_cell_volume   461.36129979
_cell_formula_units_Z   1
loop_
 _symmetry_equiv_pos_site_id
 _symmetry_equiv_pos_as_xyz
  1  'x, y, z'
loop_
 _atom_site_type_symbol
 _atom_site_label
 _atom_site_symmetry_multiplicity
 _atom_site_fract_x
 _atom_site_fract_y
 _atom_site_fract_z
 _atom_site_occupancy
  Ni  Ni0  1  0.00577700  0.00577700  0.00577700  1
  Cu  Cu1  1  0.27504500  0.90609800  0.65301200  1
  Cu  Cu2  1  0.65301200  0.27504500  0.90609800  1
  Cu  Cu3  1  0.90609800  0.65301200  0.27504500  1
  C  C4  1  0.35843400  0.35843400  0.35843400  1
  C  C5  1  0.14422500  0.14422500  0.14422500  1
  C  C6  1  0.85439100  0.85439100  0.85439100  1
  C  C7  1  0.64967400  0.64967400  0.64967400  1
  C  C8  1  0.24610800  0.53839600  0.96898800  1
  C  C9  1  0.03365100  0.75437800  0.46007900  1
  C  C10  1  0.46007900  0.03365100  0.75437800  1
  C  C11  1  0.53839600  0.96898800  0.24610800  1
  C  C12  1  0.96898800  0.24610800  0.53839600  1
  C  C13  1  0.75437800  0.46007900  0.03365100  1
  C  C14  1  0.46431200  0.85036400  0.76586000  1
  C  C15  1  0.76586000  0.46431200  0.85036400  1
  C  C16  1  0.19028900  0.38382000  0.00097500  1
  C  C17  1  0.11439100  0.74587400  0.88338500  1
  C  C18  1  0.85036400  0.76586000  0.46431200  1
  C  C19  1  0.25925600  0.10808200  0.89799700  1
  C  C20  1  0.00427100  0.80075700  0.61663900  1
  C  C21  1  0.45456200  0.51156000  0.82714400  1
  C  C22  1  0.18652600  0.54890100  0.47061200  1
  C  C23  1  0.61663900  0.00427100  0.80075700  1
  C  C24  1  0.10808200  0.89799700  0.25925600  1
  C  C25  1  0.47061200  0.18652600  0.54890100  1
  C  C26  1  0.51156000  0.82714400  0.45456200  1
  C  C27  1  0.88338500  0.11439100  0.74587400  1
  C  C28  1  0.38382000  0.00097500  0.19028900  1
  C  C29  1  0.82714400  0.45456200  0.51156000  1
  C  C30  1  0.54890100  0.47061200  0.18652600  1
  C  C31  1  0.00097500  0.19028900  0.38382000  1
  C  C32  1  0.74587400  0.88338500  0.11439100  1
  C  C33  1  0.16845200  0.21021700  0.52318400  1
  C  C34  1  0.89799700  0.25925600  0.10808200  1
  C  C35  1  0.80075700  0.61663900  0.00427100  1
  C  C36  1  0.21021700  0.52318400  0.16845200  1
  C  C37  1  0.52318400  0.16845200  0.21021700  1
