# generated using pymatgen
data_Cu16Ni4C7
_symmetry_space_group_name_H-M   'P 1'
_cell_length_a   9.96776413
_cell_length_b   9.89419559
_cell_length_c   9.89242805
_cell_angle_alpha   60.49851118
_cell_angle_beta   59.75952103
_cell_angle_gamma   59.74196780
_symmetry_Int_Tables_number   1
_chemical_formula_structural   Cu16Ni4C7
_chemical_formula_sum   'Cu32 Ni8 C14'
_cell_volume   689.78946752
_cell_formula_units_Z   2
loop_
 _symmetry_equiv_pos_site_id
 _symmetry_equiv_pos_as_xyz
  1  'x, y, z'
loop_
 _atom_site_type_symbol
 _atom_site_label
 _atom_site_symmetry_multiplicity
 _atom_site_fract_x
 _atom_site_fract_y
 _atom_site_fract_z
 _atom_site_occupancy
  C  C0  1  0.04522000  0.45478000  0.45478000  1
  C  C1  1  0.78633300  0.21366700  0.21366700  1
  C  C2  1  0.21381400  0.21381400  0.78618600  1
  C  C3  1  0.78813700  0.21186300  0.78813700  1
  C  C4  1  0.21186300  0.78813700  0.21186300  1
  C  C5  1  0.78618600  0.78618600  0.21381400  1
  C  C6  1  0.45478000  0.04522000  0.04522000  1
  C  C7  1  0.21366700  0.78633300  0.78633300  1
  C  C8  1  0.62241000  0.62569000  0.62693600  1
  C  C9  1  0.12496400  0.62693600  0.62569000  1
  C  C10  1  0.62569000  0.62241000  0.12496400  1
  C  C11  1  0.62693600  0.12496400  0.62241000  1
  Ni  Ni12  1  0.84025900  0.83437500  0.48236300  1
  Ni  Ni13  1  0.84300300  0.48236300  0.83437500  1
  Ni  Ni14  1  0.48236300  0.84300300  0.84025900  1
  Ni  Ni15  1  0.83437500  0.84025900  0.84300300  1
  Ni  Ni16  1  0.76373800  0.41001400  0.41282200  1
  Ni  Ni17  1  0.41342600  0.41282200  0.41001400  1
  Ni  Ni18  1  0.41282200  0.41342600  0.76373800  1
  Ni  Ni19  1  0.41001400  0.76373800  0.41342600  1
  C  C20  1  0.00000000  0.00000000  0.00000000  1
  C  C21  1  0.25000000  0.25000000  0.25000000  1
  Cu  Cu22  1  0.06196800  0.06099100  0.81521800  1
  Cu  Cu23  1  0.06182300  0.81521800  0.06099100  1
  Cu  Cu24  1  0.81521800  0.06182300  0.06196800  1
  Cu  Cu25  1  0.06099100  0.06196800  0.06182300  1
  Cu  Cu26  1  0.98634600  0.72328300  0.47599500  1
  Cu  Cu27  1  0.81437700  0.47599500  0.72328300  1
  Cu  Cu28  1  0.73155300  0.80038300  0.48030900  1
  Cu  Cu29  1  0.98775400  0.48030900  0.80038300  1
  Cu  Cu30  1  0.73318200  0.48132100  0.97857100  1
  Cu  Cu31  1  0.80692600  0.97857100  0.48132100  1
  Cu  Cu32  1  0.48132100  0.73318200  0.80692600  1
  Cu  Cu33  1  0.97857100  0.80692600  0.73318200  1
  Cu  Cu34  1  0.75997700  0.43640800  0.27366400  1
  Cu  Cu35  1  0.52995100  0.27366400  0.43640800  1
  Cu  Cu36  1  0.48030900  0.98775400  0.73155300  1
  Cu  Cu37  1  0.80038300  0.73155300  0.98775400  1
  Cu  Cu38  1  0.76299600  0.26934900  0.52854500  1
  Cu  Cu39  1  0.43911000  0.52854500  0.26934900  1
  Cu  Cu40  1  0.72328300  0.98634600  0.81437700  1
  Cu  Cu41  1  0.47599500  0.81437700  0.98634600  1
  Cu  Cu42  1  0.26690800  0.43840900  0.52273200  1
  Cu  Cu43  1  0.77195100  0.52273200  0.43840900  1
  Cu  Cu44  1  0.43840900  0.26690800  0.77195100  1
  Cu  Cu45  1  0.52273200  0.77195100  0.26690800  1
  Cu  Cu46  1  0.52854500  0.43911000  0.76299600  1
  Cu  Cu47  1  0.26934900  0.76299600  0.43911000  1
  Cu  Cu48  1  0.27366400  0.52995100  0.75997700  1
  Cu  Cu49  1  0.43640800  0.75997700  0.52995100  1
  Cu  Cu50  1  0.19217300  0.18615300  0.18635200  1
  Cu  Cu51  1  0.43532200  0.18635200  0.18615300  1
  Cu  Cu52  1  0.18615300  0.19217300  0.43532200  1
  Cu  Cu53  1  0.18635200  0.43532200  0.19217300  1
