# generated using pymatgen
data_CuNiC6
_symmetry_space_group_name_H-M   'P 1'
_cell_length_a   5.93800186
_cell_length_b   5.93783218
_cell_length_c   5.90756214
_cell_angle_alpha   119.82003082
_cell_angle_beta   119.82465185
_cell_angle_gamma   89.86837951
_symmetry_Int_Tables_number   1
_chemical_formula_structural   CuNiC6
_chemical_formula_sum   'Cu2 Ni2 C12'
_cell_volume   148.23912191
_cell_formula_units_Z   2
loop_
 _symmetry_equiv_pos_site_id
 _symmetry_equiv_pos_as_xyz
  1  'x, y, z'
loop_
 _atom_site_type_symbol
 _atom_site_label
 _atom_site_symmetry_multiplicity
 _atom_site_fract_x
 _atom_site_fract_y
 _atom_site_fract_z
 _atom_site_occupancy
  C  C0  1  0.99999600  0.49999700  0.49999700  1
  C  C1  1  0.49999600  0.49999700  0.49999700  1
  C  C2  1  0.49999600  0.99999700  0.99999700  1
  C  C3  1  0.49999600  0.49999700  0.99999700  1
  Ni  Ni4  1  0.99999600  0.99999700  0.49999700  1
  Ni  Ni5  1  0.99999600  0.99999700  0.99999700  1
  Cu  Cu6  1  0.00002700  0.50001700  0.99999100  1
  Cu  Cu7  1  0.50002800  0.00002800  0.50004700  1
  C  C8  1  0.24442300  0.75555500  0.01572500  1
  C  C9  1  0.24590400  0.23279800  0.48939200  1
  C  C10  1  0.24442400  0.75557600  0.48427400  1
  C  C11  1  0.76721200  0.75409300  0.01063400  1
  C  C12  1  0.23278100  0.24590100  0.98936100  1
  C  C13  1  0.75556800  0.24441800  0.51572100  1
  C  C14  1  0.75408800  0.76719600  0.51060200  1
  C  C15  1  0.75556900  0.24443900  0.98426900  1
