# generated using pymatgen
data_CuNiC15
_symmetry_space_group_name_H-M   'P 1'
_cell_length_a   7.42493700
_cell_length_b   9.06481900
_cell_length_c   12.27747800
_cell_angle_alpha   90.00000000
_cell_angle_beta   90.00000000
_cell_angle_gamma   90.00000000
_symmetry_Int_Tables_number   1
_chemical_formula_structural   CuNiC15
_chemical_formula_sum   'Cu4 Ni4 C60'
_cell_volume   826.34437369
_cell_formula_units_Z   4
loop_
 _symmetry_equiv_pos_site_id
 _symmetry_equiv_pos_as_xyz
  1  'x, y, z'
loop_
 _atom_site_type_symbol
 _atom_site_label
 _atom_site_symmetry_multiplicity
 _atom_site_fract_x
 _atom_site_fract_y
 _atom_site_fract_z
 _atom_site_occupancy
  C  C0  1  0.50000000  0.50000000  0.00000000  1
  C  C1  1  0.00000000  0.00000000  0.50000000  1
  C  C2  1  0.50000000  0.50000000  0.50000000  1
  C  C3  1  0.00000000  0.00000000  0.00000000  1
  C  C4  1  0.38932600  0.94640400  0.07459200  1
  C  C5  1  0.11067400  0.44640400  0.42540800  1
  C  C6  1  0.61067400  0.05359600  0.57459200  1
  C  C7  1  0.88932600  0.55359600  0.92540800  1
  C  C8  1  0.61067400  0.05359600  0.92540800  1
  C  C9  1  0.88932600  0.55359600  0.57459200  1
  C  C10  1  0.38932600  0.94640400  0.42540800  1
  C  C11  1  0.11067400  0.44640400  0.07459200  1
  C  C12  1  0.31247300  0.71869700  0.25000000  1
  C  C13  1  0.18752700  0.21869700  0.25000000  1
  C  C14  1  0.68752700  0.28130300  0.75000000  1
  C  C15  1  0.81247300  0.78130300  0.75000000  1
  C  C16  1  0.17846400  0.57217100  0.25000000  1
  C  C17  1  0.32153600  0.07217100  0.25000000  1
  C  C18  1  0.82153600  0.42782900  0.75000000  1
  C  C19  1  0.67846400  0.92782900  0.75000000  1
  C  C20  1  0.12001100  0.72691800  0.31923400  1
  C  C21  1  0.37998900  0.22691800  0.18076600  1
  C  C22  1  0.87998900  0.27308200  0.81923400  1
  C  C23  1  0.62001100  0.77308200  0.68076600  1
  C  C24  1  0.87998900  0.27308200  0.68076600  1
  C  C25  1  0.62001100  0.77308200  0.81923400  1
  C  C26  1  0.12001100  0.72691800  0.18076600  1
  C  C27  1  0.37998900  0.22691800  0.31923400  1
  C  C28  1  0.65741400  0.80842500  0.07633000  1
  C  C29  1  0.84258600  0.30842500  0.42367000  1
  C  C30  1  0.34258600  0.19157500  0.57633000  1
  C  C31  1  0.15741400  0.69157500  0.92367000  1
  C  C32  1  0.34258600  0.19157500  0.92367000  1
  C  C33  1  0.15741400  0.69157500  0.57633000  1
  C  C34  1  0.65741400  0.80842500  0.42367000  1
  C  C35  1  0.84258600  0.30842500  0.07633000  1
  Ni  Ni36  1  0.18014900  0.68591600  0.25000000  1
  Ni  Ni37  1  0.31985100  0.18591600  0.25000000  1
  Ni  Ni38  1  0.81985100  0.31408400  0.75000000  1
  Ni  Ni39  1  0.68014900  0.81408400  0.75000000  1
  Cu  Cu40  1  0.54935200  0.52040800  0.25000000  1
  Cu  Cu41  1  0.95064800  0.02040800  0.25000000  1
  Cu  Cu42  1  0.45064800  0.47959200  0.75000000  1
  Cu  Cu43  1  0.04935200  0.97959200  0.75000000  1
  C  C44  1  0.55922200  0.70931800  0.97140500  1
  C  C45  1  0.94077800  0.20931800  0.52859500  1
  C  C46  1  0.44077800  0.29068200  0.47140500  1
  C  C47  1  0.05922200  0.79068200  0.02859500  1
  C  C48  1  0.44077800  0.29068200  0.02859500  1
  C  C49  1  0.05922200  0.79068200  0.47140500  1
  C  C50  1  0.55922200  0.70931800  0.52859500  1
  C  C51  1  0.94077800  0.20931800  0.97140500  1
  C  C52  1  0.73786000  0.95656900  0.00069300  1
  C  C53  1  0.76214000  0.45656900  0.49930700  1
  C  C54  1  0.26214000  0.04343100  0.50069300  1
  C  C55  1  0.23786000  0.54343100  0.99930700  1
  C  C56  1  0.26214000  0.04343100  0.99930700  1
  C  C57  1  0.23786000  0.54343100  0.50069300  1
  C  C58  1  0.73786000  0.95656900  0.49930700  1
  C  C59  1  0.76214000  0.45656900  0.00069300  1
  C  C60  1  0.46193500  0.89301500  0.13361500  1
  C  C61  1  0.03806500  0.39301500  0.36638500  1
  C  C62  1  0.53806500  0.10698500  0.63361500  1
  C  C63  1  0.96193500  0.60698500  0.86638500  1
  C  C64  1  0.53806500  0.10698500  0.86638500  1
  C  C65  1  0.96193500  0.60698500  0.63361500  1
  C  C66  1  0.46193500  0.89301500  0.36638500  1
  C  C67  1  0.03806500  0.39301500  0.13361500  1
