# generated using pymatgen
data_Cu2Ni2C
_symmetry_space_group_name_H-M   'P 1'
_cell_length_a   3.88852900
_cell_length_b   6.60865800
_cell_length_c   7.72072200
_cell_angle_alpha   90.00000000
_cell_angle_beta   90.00000000
_cell_angle_gamma   90.00000000
_symmetry_Int_Tables_number   1
_chemical_formula_structural   Cu2Ni2C
_chemical_formula_sum   'Cu4 Ni4 C2'
_cell_volume   198.40679188
_cell_formula_units_Z   2
loop_
 _symmetry_equiv_pos_site_id
 _symmetry_equiv_pos_as_xyz
  1  'x, y, z'
loop_
 _atom_site_type_symbol
 _atom_site_label
 _atom_site_symmetry_multiplicity
 _atom_site_fract_x
 _atom_site_fract_y
 _atom_site_fract_z
 _atom_site_occupancy
  C  C0  1  0.96187100  0.00000000  0.97773800  1
  C  C1  1  0.03812900  0.00000000  0.47773800  1
  Ni  Ni2  1  0.49177700  0.00000000  0.96829500  1
  Ni  Ni3  1  0.00288200  0.00000000  0.71614200  1
  Ni  Ni4  1  0.50822300  0.00000000  0.46829500  1
  Ni  Ni5  1  0.99711800  0.00000000  0.21614200  1
  Cu  Cu6  1  0.00410600  0.28440600  0.95747300  1
  Cu  Cu7  1  0.00410600  0.71559400  0.95747300  1
  Cu  Cu8  1  0.99589400  0.28440600  0.45747300  1
  Cu  Cu9  1  0.99589400  0.71559400  0.45747300  1
