# generated using pymatgen
data_Cu2NiC
_symmetry_space_group_name_H-M   'P 1'
_cell_length_a   3.73186612
_cell_length_b   9.67251416
_cell_length_c   6.17027439
_cell_angle_alpha   89.27706622
_cell_angle_beta   90.01123524
_cell_angle_gamma   89.97178432
_symmetry_Int_Tables_number   1
_chemical_formula_structural   Cu2NiC
_chemical_formula_sum   'Cu8 Ni4 C4'
_cell_volume   222.70772076
_cell_formula_units_Z   4
loop_
 _symmetry_equiv_pos_site_id
 _symmetry_equiv_pos_as_xyz
  1  'x, y, z'
loop_
 _atom_site_type_symbol
 _atom_site_label
 _atom_site_symmetry_multiplicity
 _atom_site_fract_x
 _atom_site_fract_y
 _atom_site_fract_z
 _atom_site_occupancy
  C  C0  1  0.53437500  0.49673300  0.24676100  1
  C  C1  1  0.03436600  0.99673300  0.99676600  1
  C  C2  1  0.53443900  0.49673300  0.74676400  1
  C  C3  1  0.03443400  0.99673300  0.49676200  1
  Ni  Ni4  1  0.98498600  0.49663800  0.74687600  1
  Ni  Ni5  1  0.98505100  0.49663800  0.24687600  1
  Ni  Ni6  1  0.48505400  0.99663800  0.99687600  1
  Ni  Ni7  1  0.48499100  0.99663800  0.49687600  1
  Cu  Cu8  1  0.98053800  0.12572600  0.24420600  1
  Cu  Cu9  1  0.98053800  0.12572400  0.74414500  1
  Cu  Cu10  1  0.48053800  0.62572100  0.49420500  1
  Cu  Cu11  1  0.48053800  0.62572200  0.99414600  1
  Cu  Cu12  1  0.48079800  0.36774600  0.49933900  1
  Cu  Cu13  1  0.48079900  0.36774500  0.99928000  1
  Cu  Cu14  1  0.98079900  0.86774300  0.74927900  1
  Cu  Cu15  1  0.98079900  0.86774100  0.24934000  1
