# generated using pymatgen
data_Cu13Ni11C59
_symmetry_space_group_name_H-M   'P 1'
_cell_length_a   12.19473700
_cell_length_b   12.25967722
_cell_length_c   12.57806692
_cell_angle_alpha   90.14989750
_cell_angle_beta   91.29581815
_cell_angle_gamma   90.94578002
_symmetry_Int_Tables_number   1
_chemical_formula_structural   Cu13Ni11C59
_chemical_formula_sum   'Cu13 Ni11 C59'
_cell_volume   1879.72008819
_cell_formula_units_Z   1
loop_
 _symmetry_equiv_pos_site_id
 _symmetry_equiv_pos_as_xyz
  1  'x, y, z'
loop_
 _atom_site_type_symbol
 _atom_site_label
 _atom_site_symmetry_multiplicity
 _atom_site_fract_x
 _atom_site_fract_y
 _atom_site_fract_z
 _atom_site_occupancy
  C  C0  1  0.45234700  0.50243700  0.02265100  1
  C  C1  1  0.26435900  0.76152500  0.25145900  1
  C  C2  1  0.53029300  0.99958800  0.52770400  1
  C  C3  1  0.99508400  0.49769800  0.57488200  1
  C  C4  1  0.75735400  0.74344800  0.73457800  1
  C  C5  1  0.74781900  0.24909900  0.72782300  1
  C  C6  1  0.33761700  0.79809600  0.67535000  1
  C  C7  1  0.29032900  0.22338600  0.54064400  1
  C  C8  1  0.94247700  0.13539300  0.07212600  1
  C  C9  1  0.13548000  0.84786500  0.82991400  1
  C  C10  1  0.18150000  0.16683400  0.80764700  1
  Ni  Ni11  1  0.37393500  0.81487100  0.99657800  1
  Ni  Ni12  1  0.19627700  0.00788200  0.37237900  1
  Ni  Ni13  1  0.00341700  0.80512600  0.61592700  1
  Ni  Ni14  1  0.80726600  0.99210300  0.60487100  1
  Ni  Ni15  1  0.98785600  0.19718300  0.61095300  1
  Ni  Ni16  1  0.18241200  0.00870400  0.62196400  1
  Ni  Ni17  1  0.00691200  0.63026600  0.82938100  1
  Ni  Ni18  1  0.00036200  0.36135900  0.82449800  1
  Ni  Ni19  1  0.63370900  0.99336500  0.81380500  1
  Ni  Ni20  1  0.36232000  0.00368500  0.83256100  1
  Ni  Ni21  1  0.18096000  0.36347100  0.00406300  1
  Cu  Cu22  1  0.63175100  0.81130300  0.99280800  1
  Cu  Cu23  1  0.80971700  0.37786600  0.00257800  1
  Cu  Cu24  1  0.18477900  0.62844400  0.00838300  1
  Cu  Cu25  1  0.99874400  0.62183800  0.18707100  1
  Cu  Cu26  1  0.99664900  0.37812900  0.18749200  1
  Cu  Cu27  1  0.63822800  0.99483100  0.17373500  1
  Cu  Cu28  1  0.39078600  0.00717100  0.18663000  1
  Cu  Cu29  1  0.00757100  0.80974300  0.37210800  1
  Cu  Cu30  1  0.82240400  0.99040100  0.36320100  1
  Cu  Cu31  1  0.00344800  0.18995100  0.36866700  1
  Cu  Cu32  1  0.81400400  0.62542800  0.00459500  1
  Cu  Cu33  1  0.63288200  0.17996600  0.99507400  1
  Cu  Cu34  1  0.37674000  0.18972600  0.01454500  1
  C  C35  1  0.70871900  0.70413600  0.01210800  1
  C  C36  1  0.75773500  0.50071300  0.99716100  1
  C  C37  1  0.70517800  0.29301800  0.01324900  1
  C  C38  1  0.29788300  0.69768100  0.03675700  1
  C  C39  1  0.21883800  0.50295300  0.99035200  1
  C  C40  1  0.50631400  0.22283800  0.99090300  1
  C  C41  1  0.31170700  0.30289200  0.02175700  1
  C  C42  1  0.88710200  0.63559400  0.11549500  1
  C  C43  1  0.63953600  0.88449200  0.10221500  1
  C  C44  1  0.88416300  0.36984800  0.11188500  1
  C  C45  1  0.37146700  0.90511100  0.10606100  1
  C  C46  1  0.65713300  0.10353100  0.09969200  1
  C  C47  1  0.10933900  0.63689200  0.11686400  1
  C  C48  1  0.37551100  0.12599300  0.12933700  1
  C  C49  1  0.10228600  0.35268700  0.11915900  1
  C  C50  1  0.00039700  0.50025500  0.24388700  1
  C  C51  1  0.52023900  0.00295700  0.23507900  1
  C  C52  1  0.00679100  0.71429600  0.27832600  1
  C  C53  1  0.73993900  0.99037100  0.25721500  1
  C  C54  1  0.98093000  0.28156000  0.27457200  1
  C  C55  1  0.30838700  0.99657000  0.28492200  1
  C  C56  1  0.89561700  0.87990800  0.35356200  1
  C  C57  1  0.90226500  0.09920400  0.35121300  1
  C  C58  1  0.11462900  0.88780200  0.35111900  1
  C  C59  1  0.11944300  0.12840900  0.35031200  1
  C  C60  1  0.01382300  0.74640100  0.48524100  1
  C  C61  1  0.75011800  0.98923200  0.46929200  1
  C  C62  1  0.00002000  0.25546800  0.48054700  1
  C  C63  1  0.25592500  0.00888600  0.50087100  1
  C  C64  1  0.88291000  0.87595100  0.62229000  1
  C  C65  1  0.87216600  0.11650700  0.62026200  1
  C  C66  1  0.12299800  0.88158900  0.64986700  1
  C  C67  1  0.11032900  0.12971600  0.63586000  1
  C  C68  1  0.99591600  0.70058900  0.71038800  1
  C  C69  1  0.97236300  0.30615000  0.69879600  1
  C  C70  1  0.69260200  0.98783400  0.68873000  1
  C  C71  1  0.28468800  0.03223300  0.71958400  1
  C  C72  1  0.02769500  0.49658600  0.80184100  1
  C  C73  1  0.49405400  0.98835000  0.78985100  1
  C  C74  1  0.88477000  0.65336700  0.90187500  1
  C  C75  1  0.67807900  0.88079700  0.89344200  1
  C  C76  1  0.66865900  0.11656700  0.88877000  1
  C  C77  1  0.11782500  0.68462300  0.91038800  1
  C  C78  1  0.87708500  0.34281200  0.90050600  1
  C  C79  1  0.31587900  0.87579800  0.88368400  1
  C  C80  1  0.32809300  0.11186000  0.91964700  1
  C  C81  1  0.10701400  0.30003100  0.89952500  1
  C  C82  1  0.50685500  0.76296100  0.97689600  1
