# generated using pymatgen
data_CuNiC10
_symmetry_space_group_name_H-M   'P 1'
_cell_length_a   5.24550200
_cell_length_b   8.98307965
_cell_length_c   13.36057487
_cell_angle_alpha   89.83229178
_cell_angle_beta   89.79391516
_cell_angle_gamma   88.41208691
_symmetry_Int_Tables_number   1
_chemical_formula_structural   CuNiC10
_chemical_formula_sum   'Cu4 Ni4 C40'
_cell_volume   629.31212244
_cell_formula_units_Z   4
loop_
 _symmetry_equiv_pos_site_id
 _symmetry_equiv_pos_as_xyz
  1  'x, y, z'
loop_
 _atom_site_type_symbol
 _atom_site_label
 _atom_site_symmetry_multiplicity
 _atom_site_fract_x
 _atom_site_fract_y
 _atom_site_fract_z
 _atom_site_occupancy
  C  C0  1  0.75895700  0.74989600  0.23056200  1
  C  C1  1  0.75588600  0.76164100  0.50508600  1
  C  C2  1  0.76011000  0.75053600  0.74760900  1
  C  C3  1  0.24174400  0.23995700  0.25440300  1
  C  C4  1  0.23989000  0.23873100  0.49782400  1
  C  C5  1  0.24855700  0.24819600  0.74962500  1
  C  C6  1  0.24897000  0.25181100  0.99854300  1
  C  C7  1  0.77173500  0.06500300  0.88806200  1
  C  C8  1  0.21603500  0.64848200  0.37450300  1
  C  C9  1  0.22327000  0.64701900  0.87914500  1
  C  C10  1  0.78428000  0.35219600  0.12579200  1
  C  C11  1  0.77244100  0.35594000  0.62557500  1
  Ni  Ni12  1  0.28817100  0.57667000  0.12149600  1
  Ni  Ni13  1  0.29234600  0.57872200  0.62966900  1
  Ni  Ni14  1  0.71375700  0.42519500  0.37743600  1
  Ni  Ni15  1  0.70063500  0.42048400  0.87220900  1
  Cu  Cu16  1  0.27063200  0.91987000  0.37418700  1
  Cu  Cu17  1  0.28017300  0.93439000  0.87137300  1
  Cu  Cu18  1  0.72376800  0.07402700  0.62478200  1
  Cu  Cu19  1  0.73122900  0.08080400  0.12668000  1
  C  C20  1  0.71214400  0.94463400  0.12577400  1
  C  C21  1  0.73703500  0.93424800  0.62830900  1
  C  C22  1  0.05138800  0.85077500  0.37465000  1
  C  C23  1  0.07195100  0.85533200  0.87460800  1
  C  C24  1  0.49449700  0.86511600  0.86583500  1
  C  C25  1  0.46644100  0.82533100  0.37307100  1
  C  C26  1  0.23487800  0.66515900  0.02471600  1
  C  C27  1  0.21354000  0.67204600  0.21267000  1
  C  C28  1  0.21745700  0.67374800  0.53840800  1
  C  C29  1  0.22682200  0.66620100  0.72702800  1
  C  C30  1  0.57953500  0.53407200  0.12909800  1
  C  C31  1  0.59308700  0.55000100  0.62779800  1
  C  C32  1  0.85024000  0.57715600  0.37575700  1
  C  C33  1  0.84009200  0.56675400  0.86840200  1
  C  C34  1  0.14151500  0.42707700  0.12225600  1
  C  C35  1  0.16325000  0.42562900  0.62822700  1
  C  C36  1  0.41625400  0.45898900  0.37568300  1
  C  C37  1  0.40137500  0.45118700  0.87662900  1
  C  C38  1  0.78984000  0.32837800  0.28754900  1
  C  C39  1  0.77891200  0.33714300  0.47420400  1
  C  C40  1  0.75357400  0.32095200  0.77771500  1
  C  C41  1  0.77372800  0.31828300  0.96171100  1
  C  C42  1  0.53659500  0.17881300  0.12698000  1
  C  C43  1  0.51613400  0.15519000  0.62226300  1
  C  C44  1  0.95223900  0.15014400  0.12434700  1
  C  C45  1  0.93560900  0.15317000  0.62540000  1
  C  C46  1  0.28475500  0.05837100  0.37496100  1
  C  C47  1  0.25453800  0.07808900  0.87534900  1
