# generated using pymatgen
data_CuNiC11
_symmetry_space_group_name_H-M   'P 1'
_cell_length_a   6.44108800
_cell_length_b   8.46663701
_cell_length_c   9.93353490
_cell_angle_alpha   95.49998379
_cell_angle_beta   90.25876106
_cell_angle_gamma   90.44556646
_symmetry_Int_Tables_number   1
_chemical_formula_structural   CuNiC11
_chemical_formula_sum   'Cu4 Ni4 C44'
_cell_volume   539.20111920
_cell_formula_units_Z   4
loop_
 _symmetry_equiv_pos_site_id
 _symmetry_equiv_pos_as_xyz
  1  'x, y, z'
loop_
 _atom_site_type_symbol
 _atom_site_label
 _atom_site_symmetry_multiplicity
 _atom_site_fract_x
 _atom_site_fract_y
 _atom_site_fract_z
 _atom_site_occupancy
  C  C0  1  0.74187400  0.89405500  0.39319400  1
  C  C1  1  0.74492200  0.89909200  0.88128000  1
  C  C2  1  0.50856800  0.72370100  0.13711500  1
  C  C3  1  0.99788500  0.72662000  0.61356900  1
  C  C4  1  0.51101800  0.72371000  0.60975500  1
  C  C5  1  0.25221900  0.65116000  0.39846900  1
  C  C6  1  0.47274400  0.28216900  0.37502200  1
  C  C7  1  0.02822900  0.28366800  0.37630300  1
  C  C8  1  0.47640300  0.27740300  0.87140800  1
  C  C9  1  0.01878100  0.27457600  0.87146900  1
  C  C10  1  0.25080000  0.10015800  0.11461800  1
  C  C11  1  0.25027500  0.10349000  0.61034500  1
  C  C12  1  0.99581000  0.73046000  0.14363000  1
  C  C13  1  0.25279700  0.66721400  0.89380900  1
  C  C14  1  0.75079500  0.33089300  0.10326400  1
  C  C15  1  0.75148000  0.33172400  0.60411500  1
  Ni  Ni16  1  0.75252300  0.59048700  0.36216000  1
  Ni  Ni17  1  0.75103700  0.58626800  0.86542200  1
  Ni  Ni18  1  0.24858300  0.40904100  0.14074200  1
  Ni  Ni19  1  0.25148200  0.41573900  0.63935700  1
  Cu  Cu20  1  0.24238900  0.96260200  0.34764700  1
  Cu  Cu21  1  0.24686000  0.96140600  0.84805800  1
  Cu  Cu22  1  0.75079100  0.03837100  0.15132600  1
  Cu  Cu23  1  0.74908400  0.03845100  0.65062400  1
  C  C24  1  0.25046100  0.93063600  0.47044500  1
  C  C25  1  0.75599400  0.89322800  0.18869200  1
  C  C26  1  0.25299700  0.92921800  0.97295100  1
  C  C27  1  0.23654200  0.84671200  0.24811800  1
  C  C28  1  0.74617800  0.89263900  0.68069900  1
  C  C29  1  0.23998600  0.84173300  0.75491300  1
  C  C30  1  0.94193800  0.69355900  0.41114800  1
  C  C31  1  0.56015800  0.68995100  0.40510700  1
  C  C32  1  0.93917500  0.69068100  0.92677100  1
  C  C33  1  0.56472800  0.69120400  0.91720000  1
  C  C34  1  0.24714200  0.57757100  0.08888700  1
  C  C35  1  0.76258700  0.56807800  0.20083200  1
  C  C36  1  0.25433200  0.57902900  0.58665900  1
  C  C37  1  0.76063300  0.56795900  0.70886400  1
  C  C38  1  0.24900100  0.42775300  0.29602000  1
  C  C39  1  0.75031600  0.42309100  0.41243900  1
  C  C40  1  0.24991700  0.43355900  0.79799000  1
  C  C41  1  0.74903800  0.41981700  0.91616400  1
  C  C42  1  0.06186300  0.30495900  0.08313600  1
  C  C43  1  0.43752300  0.31155900  0.08296700  1
  C  C44  1  0.43815600  0.30898400  0.58862800  1
  C  C45  1  0.06371700  0.30879600  0.58623600  1
  C  C46  1  0.74113900  0.15790900  0.24306000  1
  C  C47  1  0.24574600  0.10835100  0.31498600  1
  C  C48  1  0.75227200  0.15620500  0.74629200  1
  C  C49  1  0.75365700  0.06496000  0.02622300  1
  C  C50  1  0.24902500  0.10593200  0.81511000  1
  C  C51  1  0.74843000  0.07346600  0.52676600  1
