# generated using pymatgen
data_Cu8Ni2C
_symmetry_space_group_name_H-M   'P 1'
_cell_length_a   9.12525600
_cell_length_b   9.18215800
_cell_length_c   13.53200200
_cell_angle_alpha   90.00000000
_cell_angle_beta   90.00000000
_cell_angle_gamma   90.00000000
_symmetry_Int_Tables_number   1
_chemical_formula_structural   Cu8Ni2C
_chemical_formula_sum   'Cu64 Ni16 C8'
_cell_volume   1133.84025510
_cell_formula_units_Z   8
loop_
 _symmetry_equiv_pos_site_id
 _symmetry_equiv_pos_as_xyz
  1  'x, y, z'
loop_
 _atom_site_type_symbol
 _atom_site_label
 _atom_site_symmetry_multiplicity
 _atom_site_fract_x
 _atom_site_fract_y
 _atom_site_fract_z
 _atom_site_occupancy
  C  C0  1  0.89137500  0.85557900  0.12669100  1
  C  C1  1  0.60862500  0.85557900  0.62669100  1
  C  C2  1  0.39137500  0.64442100  0.12669100  1
  C  C3  1  0.10862500  0.64442100  0.62669100  1
  C  C4  1  0.89137500  0.35557900  0.37330900  1
  C  C5  1  0.60862500  0.35557900  0.87330900  1
  C  C6  1  0.39137500  0.14442100  0.37330900  1
  C  C7  1  0.10862500  0.14442100  0.87330900  1
  Ni  Ni8  1  0.93718600  0.92709200  0.71711300  1
  Ni  Ni9  1  0.56281400  0.92709200  0.21711300  1
  Ni  Ni10  1  0.31464100  0.84096600  0.48449300  1
  Ni  Ni11  1  0.18535900  0.84096600  0.98449300  1
  Ni  Ni12  1  0.81464100  0.65903400  0.48449300  1
  Ni  Ni13  1  0.68535900  0.65903400  0.98449300  1
  Ni  Ni14  1  0.06281400  0.57290800  0.21711300  1
  Ni  Ni15  1  0.43718600  0.57290800  0.71711300  1
  Ni  Ni16  1  0.56281400  0.42709200  0.28288700  1
  Ni  Ni17  1  0.93718600  0.42709200  0.78288700  1
  Ni  Ni18  1  0.31464100  0.34096600  0.01550700  1
  Ni  Ni19  1  0.18535900  0.34096600  0.51550700  1
  Ni  Ni20  1  0.81464100  0.15903400  0.01550700  1
  Ni  Ni21  1  0.68535900  0.15903400  0.51550700  1
  Ni  Ni22  1  0.43718600  0.07290800  0.78288700  1
  Ni  Ni23  1  0.06281400  0.07290800  0.28288700  1
  Cu  Cu24  1  0.30559900  0.00345600  0.46829600  1
  Cu  Cu25  1  0.19440100  0.00345600  0.96829600  1
  Cu  Cu26  1  0.01716200  0.98363800  0.36320900  1
  Cu  Cu27  1  0.48283800  0.98363800  0.86320900  1
  Cu  Cu28  1  0.51880400  0.98477100  0.31748800  1
  Cu  Cu29  1  0.98119600  0.98477100  0.81748800  1
  Cu  Cu30  1  0.77299200  0.90273200  0.71995300  1
  Cu  Cu31  1  0.72700800  0.90273200  0.21995300  1
  Cu  Cu32  1  0.28278400  0.80949800  0.07320300  1
  Cu  Cu33  1  0.21721600  0.80949800  0.57320300  1
  Cu  Cu34  1  0.03260100  0.81081000  0.02080200  1
  Cu  Cu35  1  0.46739900  0.81081000  0.52080200  1
  Cu  Cu36  1  0.00500700  0.77528600  0.71401600  1
  Cu  Cu37  1  0.49499300  0.77528600  0.21401600  1
  Cu  Cu38  1  0.27710900  0.75768500  0.39944400  1
  Cu  Cu39  1  0.22289100  0.75768500  0.89944400  1
  Cu  Cu40  1  0.77710900  0.74231500  0.39944400  1
  Cu  Cu41  1  0.72289100  0.74231500  0.89944400  1
  Cu  Cu42  1  0.99499300  0.72471400  0.21401600  1
  Cu  Cu43  1  0.50500700  0.72471400  0.71401600  1
  Cu  Cu44  1  0.96739900  0.68919000  0.52080200  1
  Cu  Cu45  1  0.53260100  0.68919000  0.02080200  1
  Cu  Cu46  1  0.78278400  0.69050200  0.07320300  1
  Cu  Cu47  1  0.71721600  0.69050200  0.57320300  1
  Cu  Cu48  1  0.22700800  0.59726800  0.21995300  1
  Cu  Cu49  1  0.27299200  0.59726800  0.71995300  1
  Cu  Cu50  1  0.48119600  0.51522900  0.81748800  1
  Cu  Cu51  1  0.01880400  0.51522900  0.31748800  1
  Cu  Cu52  1  0.51716200  0.51636200  0.36320900  1
  Cu  Cu53  1  0.98283800  0.51636200  0.86320900  1
  Cu  Cu54  1  0.80559900  0.49654400  0.46829600  1
  Cu  Cu55  1  0.69440100  0.49654400  0.96829600  1
  Cu  Cu56  1  0.30559900  0.50345600  0.03170400  1
  Cu  Cu57  1  0.19440100  0.50345600  0.53170400  1
  Cu  Cu58  1  0.48283800  0.48363800  0.63679100  1
  Cu  Cu59  1  0.01716200  0.48363800  0.13679100  1
  Cu  Cu60  1  0.51880400  0.48477100  0.18251200  1
  Cu  Cu61  1  0.98119600  0.48477100  0.68251200  1
  Cu  Cu62  1  0.72700800  0.40273200  0.28004700  1
  Cu  Cu63  1  0.77299200  0.40273200  0.78004700  1
  Cu  Cu64  1  0.28278400  0.30949800  0.42679700  1
  Cu  Cu65  1  0.21721600  0.30949800  0.92679700  1
  Cu  Cu66  1  0.46739900  0.31081000  0.97919800  1
  Cu  Cu67  1  0.03260100  0.31081000  0.47919800  1
  Cu  Cu68  1  0.49499300  0.27528600  0.28598400  1
  Cu  Cu69  1  0.00500700  0.27528600  0.78598400  1
  Cu  Cu70  1  0.27710900  0.25768500  0.10055600  1
  Cu  Cu71  1  0.22289100  0.25768500  0.60055600  1
  Cu  Cu72  1  0.77710900  0.24231500  0.10055600  1
  Cu  Cu73  1  0.72289100  0.24231500  0.60055600  1
  Cu  Cu74  1  0.50500700  0.22471400  0.78598400  1
  Cu  Cu75  1  0.99499300  0.22471400  0.28598400  1
  Cu  Cu76  1  0.53260100  0.18919000  0.47919800  1
  Cu  Cu77  1  0.96739900  0.18919000  0.97919800  1
  Cu  Cu78  1  0.78278400  0.19050200  0.42679700  1
  Cu  Cu79  1  0.71721600  0.19050200  0.92679700  1
  Cu  Cu80  1  0.27299200  0.09726800  0.78004700  1
  Cu  Cu81  1  0.22700800  0.09726800  0.28004700  1
  Cu  Cu82  1  0.48119600  0.01522900  0.68251200  1
  Cu  Cu83  1  0.01880400  0.01522900  0.18251200  1
  Cu  Cu84  1  0.98283800  0.01636200  0.63679100  1
  Cu  Cu85  1  0.51716200  0.01636200  0.13679100  1
  Cu  Cu86  1  0.80559900  0.99654400  0.03170400  1
  Cu  Cu87  1  0.69440100  0.99654400  0.53170400  1
