# generated using pymatgen
data_Cu(NiC13)2
_symmetry_space_group_name_H-M   'P 1'
_cell_length_a   10.29884056
_cell_length_b   10.29884056
_cell_length_c   10.29884056
_cell_angle_alpha   60.00000000
_cell_angle_beta   60.00000000
_cell_angle_gamma   60.00000000
_symmetry_Int_Tables_number   1
_chemical_formula_structural   Cu(NiC13)2
_chemical_formula_sum   'Cu2 Ni4 C52'
_cell_volume   772.41376860
_cell_formula_units_Z   2
loop_
 _symmetry_equiv_pos_site_id
 _symmetry_equiv_pos_as_xyz
  1  'x, y, z'
loop_
 _atom_site_type_symbol
 _atom_site_label
 _atom_site_symmetry_multiplicity
 _atom_site_fract_x
 _atom_site_fract_y
 _atom_site_fract_z
 _atom_site_occupancy
  C  C0  1  0.04563400  0.45436600  0.04563400  1
  C  C1  1  0.79563400  0.20436600  0.79563400  1
  C  C2  1  0.45436600  0.45436600  0.04563400  1
  C  C3  1  0.20436600  0.20436600  0.79563400  1
  C  C4  1  0.04563400  0.45436600  0.45436600  1
  C  C5  1  0.79563400  0.20436600  0.20436600  1
  C  C6  1  0.04563400  0.04563400  0.45436600  1
  C  C7  1  0.45436600  0.04563400  0.04563400  1
  C  C8  1  0.20436600  0.79563400  0.79563400  1
  C  C9  1  0.79563400  0.79563400  0.20436600  1
  C  C10  1  0.45436600  0.04563400  0.45436600  1
  C  C11  1  0.20436600  0.79563400  0.20436600  1
  Ni  Ni12  1  0.62500000  0.12500000  0.62500000  1
  Ni  Ni13  1  0.62500000  0.62500000  0.12500000  1
  Ni  Ni14  1  0.12500000  0.62500000  0.62500000  1
  Ni  Ni15  1  0.62500000  0.62500000  0.62500000  1
  C  C16  1  0.82454200  0.39181900  0.39181900  1
  C  C17  1  0.39181900  0.39181900  0.82454200  1
  C  C18  1  0.39181900  0.82454200  0.39181900  1
  C  C19  1  0.85818100  0.85818100  0.85818100  1
  C  C20  1  0.85818100  0.42545800  0.85818100  1
  C  C21  1  0.39181900  0.39181900  0.39181900  1
  C  C22  1  0.85818100  0.85818100  0.42545800  1
  C  C23  1  0.42545800  0.85818100  0.85818100  1
  Cu  Cu24  1  0.25000000  0.25000000  0.25000000  1
  Cu  Cu25  1  0.00000000  0.00000000  0.00000000  1
  C  C26  1  0.82373100  0.26371200  0.39520900  1
  C  C27  1  0.19068600  0.19068600  0.19068600  1
  C  C28  1  0.51734800  0.26371200  0.82373100  1
  C  C29  1  0.26371200  0.39520900  0.82373100  1
  C  C30  1  0.19068600  0.19068600  0.42794100  1
  C  C31  1  0.42794100  0.19068600  0.19068600  1
  C  C32  1  0.82373100  0.51734800  0.26371200  1
  C  C33  1  0.82373100  0.39520900  0.51734800  1
  C  C34  1  0.19068600  0.42794100  0.19068600  1
  C  C35  1  0.39520900  0.82373100  0.26371200  1
  C  C36  1  0.98628800  0.73265200  0.85479100  1
  C  C37  1  0.39520900  0.51734800  0.82373100  1
  C  C38  1  0.26371200  0.82373100  0.51734800  1
  C  C39  1  0.73265200  0.85479100  0.98628800  1
  C  C40  1  0.39520900  0.26371200  0.51734800  1
  C  C41  1  0.73265200  0.42626900  0.85479100  1
  C  C42  1  0.85479100  0.98628800  0.73265200  1
  C  C43  1  0.51734800  0.82373100  0.39520900  1
  C  C44  1  0.51734800  0.39520900  0.26371200  1
  C  C45  1  0.98628800  0.42626900  0.73265200  1
  C  C46  1  0.85479100  0.73265200  0.42626900  1
  C  C47  1  0.26371200  0.51734800  0.39520900  1
  C  C48  1  0.85479100  0.42626900  0.98628800  1
  C  C49  1  0.05931400  0.82205900  0.05931400  1
  C  C50  1  0.42626900  0.85479100  0.73265200  1
  C  C51  1  0.42626900  0.73265200  0.98628800  1
  C  C52  1  0.05931400  0.05931400  0.82205900  1
  C  C53  1  0.82205900  0.05931400  0.05931400  1
  C  C54  1  0.98628800  0.85479100  0.42626900  1
  C  C55  1  0.73265200  0.98628800  0.42626900  1
  C  C56  1  0.05931400  0.05931400  0.05931400  1
  C  C57  1  0.42626900  0.98628800  0.85479100  1
