# generated using pymatgen
data_Cu12Ni3C26
_symmetry_space_group_name_H-M   'P 1'
_cell_length_a   10.82621476
_cell_length_b   10.82621476
_cell_length_c   10.82621488
_cell_angle_alpha   60.26527140
_cell_angle_beta   60.26527140
_cell_angle_gamma   60.26526995
_symmetry_Int_Tables_number   1
_chemical_formula_structural   Cu12Ni3C26
_chemical_formula_sum   'Cu24 Ni6 C52'
_cell_volume   902.64030264
_cell_formula_units_Z   2
loop_
 _symmetry_equiv_pos_site_id
 _symmetry_equiv_pos_as_xyz
  1  'x, y, z'
loop_
 _atom_site_type_symbol
 _atom_site_label
 _atom_site_symmetry_multiplicity
 _atom_site_fract_x
 _atom_site_fract_y
 _atom_site_fract_z
 _atom_site_occupancy
  C  C0  1  0.67422600  0.06958600  0.93779500  1
  C  C1  1  0.56958600  0.17422600  0.43779500  1
  C  C2  1  0.93779500  0.67422600  0.06958600  1
  C  C3  1  0.43779500  0.56958600  0.17422600  1
  C  C4  1  0.17422600  0.43779500  0.56958600  1
  C  C5  1  0.06958600  0.93779500  0.67422600  1
  C  C6  1  0.97881200  0.00675400  0.30536100  1
  C  C7  1  0.80536100  0.50675400  0.47881200  1
  C  C8  1  0.50675400  0.47881200  0.80536100  1
  C  C9  1  0.99880500  0.99880500  0.99880500  1
  C  C10  1  0.49880500  0.49880500  0.49880500  1
  C  C11  1  0.00675400  0.30536100  0.97881200  1
  C  C12  1  0.47881200  0.80536100  0.50675400  1
  C  C13  1  0.30536100  0.97881200  0.00675400  1
  Ni  Ni14  1  0.83872100  0.30078100  0.80634100  1
  Ni  Ni15  1  0.80078100  0.33872100  0.30634100  1
  Ni  Ni16  1  0.33872100  0.30634100  0.80078100  1
  Ni  Ni17  1  0.80634100  0.83872100  0.30078100  1
  Ni  Ni18  1  0.30078100  0.80634100  0.83872100  1
  Ni  Ni19  1  0.30634100  0.80078100  0.33872100  1
  Cu  Cu20  1  0.75815000  0.00383100  0.69049700  1
  Cu  Cu21  1  0.80652300  0.14322100  0.62438500  1
  Cu  Cu22  1  0.46153900  0.02722900  0.22395900  1
  Cu  Cu23  1  0.64322100  0.30652300  0.12438500  1
  Cu  Cu24  1  0.96153900  0.72395900  0.52722900  1
  Cu  Cu25  1  0.50383100  0.25815000  0.19049700  1
  Cu  Cu26  1  0.30652300  0.12438500  0.64322100  1
  Cu  Cu27  1  0.88645900  0.61472000  0.67406200  1
  Cu  Cu28  1  0.38645900  0.17406200  0.11472000  1
  Cu  Cu29  1  0.72395900  0.52722900  0.96153900  1
  Cu  Cu30  1  0.25815000  0.19049700  0.50383100  1
  Cu  Cu31  1  0.17406200  0.11472000  0.38645900  1
  Cu  Cu32  1  0.61472000  0.67406200  0.88645900  1
  Cu  Cu33  1  0.69049700  0.75815000  0.00383100  1
  Cu  Cu34  1  0.02722900  0.22395900  0.46153900  1
  Cu  Cu35  1  0.67406200  0.88645900  0.61472000  1
  Cu  Cu36  1  0.11472000  0.38645900  0.17406200  1
  Cu  Cu37  1  0.62438500  0.80652300  0.14322100  1
  Cu  Cu38  1  0.22395900  0.46153900  0.02722900  1
  Cu  Cu39  1  0.19049700  0.50383100  0.25815000  1
  Cu  Cu40  1  0.52722900  0.96153900  0.72395900  1
  Cu  Cu41  1  0.14322100  0.62438500  0.80652300  1
  Cu  Cu42  1  0.12438500  0.64322100  0.30652300  1
  Cu  Cu43  1  0.00383100  0.69049700  0.75815000  1
  C  C44  1  0.96309800  0.14753000  0.79859500  1
  C  C45  1  0.81712300  0.04194400  0.70158000  1
  C  C46  1  0.78622800  0.18564700  0.34611300  1
  C  C47  1  0.92783500  0.37857200  0.15466400  1
  C  C48  1  0.84395400  0.32211100  0.43404300  1
  C  C49  1  0.82211100  0.34395400  0.93404300  1
  C  C50  1  0.87857200  0.42783500  0.65466400  1
  C  C51  1  0.68564700  0.28622800  0.84611300  1
  C  C52  1  0.46602300  0.13007400  0.15718600  1
  C  C53  1  0.96602300  0.65718600  0.63007400  1
  C  C54  1  0.37857200  0.15466400  0.92783500  1
  C  C55  1  0.54194400  0.31712300  0.20158000  1
  C  C56  1  0.84611300  0.68564700  0.28622800  1
  C  C57  1  0.64753000  0.46309800  0.29859500  1
  C  C58  1  0.46309800  0.29859500  0.64753000  1
  C  C59  1  0.93404300  0.82211100  0.34395400  1
  C  C60  1  0.31712300  0.20158000  0.54194400  1
  C  C61  1  0.65718600  0.63007400  0.96602300  1
  C  C62  1  0.07578000  0.07578000  0.07578000  1
  C  C63  1  0.57578000  0.57578000  0.57578000  1
  C  C64  1  0.13007400  0.15718600  0.46602300  1
  C  C65  1  0.70158000  0.81712300  0.04194400  1
  C  C66  1  0.32211100  0.43404300  0.84395400  1
  C  C67  1  0.79859500  0.96309800  0.14753000  1
  C  C68  1  0.18564700  0.34611300  0.78622800  1
  C  C69  1  0.42783500  0.65466400  0.87857200  1
  C  C70  1  0.65466400  0.87857200  0.42783500  1
  C  C71  1  0.15718600  0.46602300  0.13007400  1
  C  C72  1  0.63007400  0.96602300  0.65718600  1
  C  C73  1  0.29859500  0.64753000  0.46309800  1
  C  C74  1  0.20158000  0.54194400  0.31712300  1
  C  C75  1  0.43404300  0.84395400  0.32211100  1
  C  C76  1  0.34611300  0.78622800  0.18564700  1
  C  C77  1  0.28622800  0.84611300  0.68564700  1
  C  C78  1  0.34395400  0.93404300  0.82211100  1
  C  C79  1  0.04194400  0.70158000  0.81712300  1
  C  C80  1  0.14753000  0.79859500  0.96309800  1
  C  C81  1  0.15466400  0.92783500  0.37857200  1
