# generated using pymatgen
data_CuNiC
_symmetry_space_group_name_H-M   'P 1'
_cell_length_a   3.11532300
_cell_length_b   14.16119400
_cell_length_c   14.25566617
_cell_angle_alpha   89.92511904
_cell_angle_beta   90.00000000
_cell_angle_gamma   90.00000000
_symmetry_Int_Tables_number   1
_chemical_formula_structural   CuNiC
_chemical_formula_sum   'Cu18 Ni18 C18'
_cell_volume   628.91231639
_cell_formula_units_Z   18
loop_
 _symmetry_equiv_pos_site_id
 _symmetry_equiv_pos_as_xyz
  1  'x, y, z'
loop_
 _atom_site_type_symbol
 _atom_site_label
 _atom_site_symmetry_multiplicity
 _atom_site_fract_x
 _atom_site_fract_y
 _atom_site_fract_z
 _atom_site_occupancy
  C  C0  1  0.00000000  0.98661500  0.00123400  1
  C  C1  1  0.00000000  0.99095400  0.67236300  1
  C  C2  1  0.00000000  0.98626100  0.33681500  1
  C  C3  1  0.50000000  0.84710200  0.83448400  1
  C  C4  1  0.50000000  0.84867600  0.50541300  1
  C  C5  1  0.50000000  0.84697800  0.16891400  1
  C  C6  1  0.00000000  0.65432700  0.00217200  1
  C  C7  1  0.00000000  0.65501200  0.66841500  1
  C  C8  1  0.00000000  0.65661600  0.33816300  1
  C  C9  1  0.50000000  0.51300500  0.50284000  1
  C  C10  1  0.50000000  0.51421600  0.83439600  1
  C  C11  1  0.50000000  0.51572000  0.17150200  1
  C  C12  1  0.00000000  0.32340400  0.00510000  1
  C  C13  1  0.00000000  0.31959900  0.66968800  1
  C  C14  1  0.00000000  0.32031800  0.33635600  1
  C  C15  1  0.50000000  0.15881000  0.81536500  1
  C  C16  1  0.50000000  0.17909000  0.50285800  1
  C  C17  1  0.50000000  0.17805600  0.16988900  1
  Ni  Ni18  1  0.50000000  0.93217900  0.72998900  1
  Ni  Ni19  1  0.50000000  0.93585400  0.39874900  1
  Ni  Ni20  1  0.50000000  0.93530600  0.06420600  1
  Ni  Ni21  1  0.00000000  0.89914000  0.89734600  1
  Ni  Ni22  1  0.00000000  0.89976300  0.56601300  1
  Ni  Ni23  1  0.00000000  0.89847000  0.23120800  1
  Ni  Ni24  1  0.50000000  0.60240200  0.73069700  1
  Ni  Ni25  1  0.50000000  0.60242500  0.39838800  1
  Ni  Ni26  1  0.50000000  0.60162200  0.06465700  1
  Ni  Ni27  1  0.00000000  0.56367500  0.89876500  1
  Ni  Ni28  1  0.00000000  0.56512300  0.56462300  1
  Ni  Ni29  1  0.00000000  0.56676800  0.23283500  1
  Ni  Ni30  1  0.50000000  0.27024500  0.73430800  1
  Ni  Ni31  1  0.50000000  0.26824200  0.39761900  1
  Ni  Ni32  1  0.50000000  0.26689800  0.06152200  1
  Ni  Ni33  1  0.00000000  0.23226400  0.56475700  1
  Ni  Ni34  1  0.00000000  0.23282300  0.22979200  1
  Ni  Ni35  1  0.00000000  0.09858800  0.76439600  1
  Cu  Cu36  1  0.00000000  0.76715100  0.76667800  1
  Cu  Cu37  1  0.00000000  0.76879100  0.43493400  1
  Cu  Cu38  1  0.00000000  0.76772000  0.10038400  1
  Cu  Cu39  1  0.50000000  0.73201800  0.93372900  1
  Cu  Cu40  1  0.50000000  0.73303300  0.26760000  1
  Cu  Cu41  1  0.50000000  0.73228200  0.60088500  1
  Cu  Cu42  1  0.00000000  0.43493100  0.76720900  1
  Cu  Cu43  1  0.00000000  0.43444500  0.43334900  1
  Cu  Cu44  1  0.00000000  0.43368100  0.09969700  1
  Cu  Cu45  1  0.50000000  0.39528500  0.93312100  1
  Cu  Cu46  1  0.50000000  0.39901600  0.60069900  1
  Cu  Cu47  1  0.50000000  0.39938300  0.26656100  1
  Cu  Cu48  1  0.00000000  0.23059900  0.89697000  1
  Cu  Cu49  1  0.00000000  0.10201500  0.43246000  1
  Cu  Cu50  1  0.00000000  0.10172400  0.10097300  1
  Cu  Cu51  1  0.50000000  0.06927500  0.93647700  1
  Cu  Cu52  1  0.50000000  0.06611200  0.59586000  1
  Cu  Cu53  1  0.50000000  0.06599100  0.26657800  1
