# generated using pymatgen
data_CuNiC20
_symmetry_space_group_name_H-M   'P 1'
_cell_length_a   8.23739200
_cell_length_b   7.17516900
_cell_length_c   9.77890733
_cell_angle_alpha   68.55108438
_cell_angle_beta   90.00000000
_cell_angle_gamma   90.00000000
_symmetry_Int_Tables_number   1
_chemical_formula_structural   CuNiC20
_chemical_formula_sum   'Cu2 Ni2 C40'
_cell_volume   537.95064011
_cell_formula_units_Z   2
loop_
 _symmetry_equiv_pos_site_id
 _symmetry_equiv_pos_as_xyz
  1  'x, y, z'
loop_
 _atom_site_type_symbol
 _atom_site_label
 _atom_site_symmetry_multiplicity
 _atom_site_fract_x
 _atom_site_fract_y
 _atom_site_fract_z
 _atom_site_occupancy
  C  C0  1  0.36272700  0.57574000  0.75079100  1
  C  C1  1  0.86115000  0.92651000  0.74898100  1
  C  C2  1  0.36115000  0.07349000  0.25101900  1
  C  C3  1  0.86272700  0.42426000  0.24920900  1
  Ni  Ni4  1  0.99966500  0.52782900  0.74283200  1
  Ni  Ni5  1  0.49966500  0.47217100  0.25716800  1
  Cu  Cu6  1  0.49981200  0.97372600  0.75839100  1
  Cu  Cu7  1  0.99981200  0.02627400  0.24160900  1
  C  C8  1  0.78247400  0.14943000  0.93702400  1
  C  C9  1  0.67987200  0.53962900  0.93858300  1
  C  C10  1  0.18080100  0.96174600  0.56089100  1
  C  C11  1  0.78465800  0.65179500  0.43532900  1
  C  C12  1  0.28465800  0.34820500  0.56467100  1
  C  C13  1  0.68080100  0.03825400  0.43910900  1
  C  C14  1  0.17987200  0.46037100  0.06141700  1
  C  C15  1  0.28247400  0.85057000  0.06297600  1
  C  C16  1  0.65165700  0.32605600  0.92124700  1
  C  C17  1  0.93260500  0.23936100  0.84251900  1
  C  C18  1  0.17817800  0.49757800  0.89651300  1
  C  C19  1  0.84396800  0.62312900  0.87047600  1
  C  C20  1  0.53778200  0.66604200  0.85237400  1
  C  C21  1  0.32319300  0.95296200  0.90096300  1
  C  C22  1  0.69307500  0.00874100  0.87618600  1
  C  C23  1  0.19819500  0.49048100  0.62467700  1
  C  C24  1  0.82530400  0.55093200  0.59786300  1
  C  C25  1  0.03873600  0.83452900  0.64835600  1
  C  C26  1  0.34612800  0.87904600  0.62957500  1
  C  C27  1  0.67904700  0.00291900  0.60349900  1
  C  C28  1  0.43419200  0.25582400  0.65851000  1
  C  C29  1  0.15236100  0.17439700  0.57901700  1
  C  C30  1  0.65236100  0.82560300  0.42098300  1
  C  C31  1  0.93419200  0.74417600  0.34149000  1
  C  C32  1  0.17904700  0.99708100  0.39650100  1
  C  C33  1  0.84612800  0.12095400  0.37042500  1
  C  C34  1  0.53873600  0.16547100  0.35164400  1
  C  C35  1  0.32530400  0.44906800  0.40213700  1
  C  C36  1  0.69819500  0.50951900  0.37532300  1
  C  C37  1  0.19307500  0.99125900  0.12381400  1
  C  C38  1  0.82319300  0.04703800  0.09903700  1
  C  C39  1  0.03778200  0.33395800  0.14762600  1
  C  C40  1  0.34396800  0.37687100  0.12952400  1
  C  C41  1  0.67817800  0.50242200  0.10348700  1
  C  C42  1  0.43260500  0.76063900  0.15748100  1
  C  C43  1  0.15165700  0.67394400  0.07875300  1
