# generated using pymatgen
data_Cu2Ni3C31
_symmetry_space_group_name_H-M   'P 1'
_cell_length_a   8.56174463
_cell_length_b   8.56174463
_cell_length_c   8.56174436
_cell_angle_alpha   61.57287084
_cell_angle_beta   61.57287084
_cell_angle_gamma   61.57287012
_symmetry_Int_Tables_number   1
_chemical_formula_structural   Cu2Ni3C31
_chemical_formula_sum   'Cu2 Ni3 C31'
_cell_volume   459.44479062
_cell_formula_units_Z   1
loop_
 _symmetry_equiv_pos_site_id
 _symmetry_equiv_pos_as_xyz
  1  'x, y, z'
loop_
 _atom_site_type_symbol
 _atom_site_label
 _atom_site_symmetry_multiplicity
 _atom_site_fract_x
 _atom_site_fract_y
 _atom_site_fract_z
 _atom_site_occupancy
  Ni  Ni0  1  0.14917800  0.14917800  0.14917800  1
  Ni  Ni1  1  0.35281700  0.35281700  0.35281700  1
  Ni  Ni2  1  0.64654500  0.64654500  0.64654500  1
  C  C3  1  0.85344500  0.85344500  0.85344500  1
  Cu  Cu4  1  0.00275600  0.00275600  0.00275600  1
  Cu  Cu5  1  0.50150000  0.50150000  0.50150000  1
  C  C6  1  0.44272200  0.74803600  0.05405400  1
  C  C7  1  0.54799500  0.25443700  0.94654000  1
  C  C8  1  0.94654000  0.54799500  0.25443700  1
  C  C9  1  0.25443700  0.94654000  0.54799500  1
  C  C10  1  0.74803600  0.05405400  0.44272200  1
  C  C11  1  0.05405400  0.44272200  0.74803600  1
  C  C12  1  0.32122500  0.09464200  0.51840900  1
  C  C13  1  0.51840900  0.32122500  0.09464200  1
  C  C14  1  0.90415300  0.07000600  0.24677700  1
  C  C15  1  0.09464200  0.51840900  0.32122500  1
  C  C16  1  0.82837700  0.98718500  0.60721600  1
  C  C17  1  0.60364400  0.25034700  0.44655100  1
  C  C18  1  0.07000600  0.24677700  0.90415300  1
  C  C19  1  0.25034700  0.44655100  0.60364400  1
  C  C20  1  0.40257600  0.17492100  0.98868400  1
  C  C21  1  0.44655100  0.60364400  0.25034700  1
  C  C22  1  0.75495200  0.09400400  0.92729900  1
  C  C23  1  0.98868400  0.40257600  0.17492100  1
  C  C24  1  0.98718500  0.60721600  0.82837700  1
  C  C25  1  0.24677700  0.90415300  0.07000600  1
  C  C26  1  0.56718800  0.40146200  0.74419900  1
  C  C27  1  0.60721600  0.82837700  0.98718500  1
  C  C28  1  0.74419900  0.56718800  0.40146200  1
  C  C29  1  0.92729900  0.75495200  0.09400400  1
  C  C30  1  0.40146200  0.74419900  0.56718800  1
  C  C31  1  0.17492100  0.98868400  0.40257600  1
  C  C32  1  0.90281000  0.48569400  0.67765200  1
  C  C33  1  0.09400400  0.92729900  0.75495200  1
  C  C34  1  0.48569400  0.67765200  0.90281000  1
  C  C35  1  0.67765200  0.90281000  0.48569400  1
