# generated using pymatgen
data_Cu2NiC8
_symmetry_space_group_name_H-M   'P 1'
_cell_length_a   15.73318685
_cell_length_b   11.97912255
_cell_length_c   11.14388807
_cell_angle_alpha   85.67115547
_cell_angle_beta   49.39547802
_cell_angle_gamma   44.93336651
_symmetry_Int_Tables_number   1
_chemical_formula_structural   Cu2NiC8
_chemical_formula_sum   'Cu12 Ni6 C48'
_cell_volume   783.35100482
_cell_formula_units_Z   6
loop_
 _symmetry_equiv_pos_site_id
 _symmetry_equiv_pos_as_xyz
  1  'x, y, z'
loop_
 _atom_site_type_symbol
 _atom_site_label
 _atom_site_symmetry_multiplicity
 _atom_site_fract_x
 _atom_site_fract_y
 _atom_site_fract_z
 _atom_site_occupancy
  C  C0  1  0.98883700  0.98883700  0.51116300  1
  C  C1  1  0.64503100  0.64503100  0.85496900  1
  C  C2  1  0.10643100  0.45511600  0.53685200  1
  C  C3  1  0.79647100  0.06254100  0.92454300  1
  C  C4  1  0.32545700  0.03355600  0.45352900  1
  C  C5  1  0.71314800  0.34839900  0.14356900  1
  C  C6  1  0.73883700  0.73883700  0.26116300  1
  C  C7  1  0.39503100  0.39503100  0.60496900  1
  C  C8  1  0.34839900  0.71314800  0.79488400  1
  C  C9  1  0.03355600  0.32545700  0.18745900  1
  C  C10  1  0.06254100  0.79647100  0.21644400  1
  C  C11  1  0.45511600  0.10643100  0.90160100  1
  Ni  Ni12  1  0.86826500  0.86826500  0.63173500  1
  Ni  Ni13  1  0.92327300  0.21693800  0.74458400  1
  Ni  Ni14  1  0.50541600  0.13479600  0.32672700  1
  Ni  Ni15  1  0.61826500  0.61826500  0.38173500  1
  Ni  Ni16  1  0.13479600  0.50541600  0.03306200  1
  Ni  Ni17  1  0.21693800  0.92327300  0.11520400  1
  Cu  Cu18  1  0.15872900  0.15872900  0.34127100  1
  Cu  Cu19  1  0.48495600  0.48495600  0.01504400  1
  Cu  Cu20  1  0.56057200  0.95203800  0.05019200  1
  Cu  Cu21  1  0.28727000  0.57364200  0.42941500  1
  Cu  Cu22  1  0.82058500  0.54032700  0.96273000  1
  Cu  Cu23  1  0.19980800  0.81280200  0.68942800  1
  Cu  Cu24  1  0.23495600  0.23495600  0.76504400  1
  Cu  Cu25  1  0.90872900  0.90872900  0.09127100  1
  Cu  Cu26  1  0.81280200  0.19980800  0.29796200  1
  Cu  Cu27  1  0.54032700  0.82058500  0.67635800  1
  Cu  Cu28  1  0.57364200  0.28727000  0.70967300  1
  Cu  Cu29  1  0.95203800  0.56057200  0.43719800  1
  C  C30  1  0.74706600  0.29413600  0.77478400  1
  C  C31  1  0.60169900  0.02388200  0.92180700  1
  C  C32  1  0.02900200  0.82600900  0.60270800  1
  C  C33  1  0.47024700  0.41550100  0.15822000  1
  C  C34  1  0.18109100  0.06895600  0.45118400  1
  C  C35  1  0.80472600  0.67509100  0.88624900  1
  C  C36  1  0.42338200  0.97763700  0.08823800  1
  C  C37  1  0.75679200  0.49088500  0.94030700  1
  C  C38  1  0.40122800  0.11717700  0.29903300  1
  C  C39  1  0.95096700  0.06743800  0.84877200  1
  C  C40  1  0.30969300  0.43798400  0.49320800  1
  C  C41  1  0.16176200  0.73925800  0.82661800  1
  C  C42  1  0.36375100  0.61606500  0.44527400  1
  C  C43  1  0.79881600  0.95123100  0.06890900  1
  C  C44  1  0.09178000  0.29396800  0.77975300  1
  C  C45  1  0.64729200  0.70771900  0.22099800  1
  C  C46  1  0.32819300  0.79738800  0.64830100  1
  C  C47  1  0.47521600  0.06598600  0.50293400  1
  C  C48  1  0.06598600  0.47521600  0.95586400  1
  C  C49  1  0.79738800  0.32819300  0.22611800  1
  C  C50  1  0.70771900  0.64729200  0.42399100  1
  C  C51  1  0.29396800  0.09178000  0.83449900  1
  C  C52  1  0.95123100  0.79881600  0.18104400  1
  C  C53  1  0.61606500  0.36375100  0.57490900  1
  C  C54  1  0.73925800  0.16176200  0.27236300  1
  C  C55  1  0.43798400  0.30969300  0.75911500  1
  C  C56  1  0.06743800  0.95096700  0.13282300  1
  C  C57  1  0.11717700  0.40122800  0.18256200  1
  C  C58  1  0.49088500  0.75679200  0.81201600  1
  C  C59  1  0.97763700  0.42338200  0.51074200  1
  C  C60  1  0.67509100  0.80472600  0.63393500  1
  C  C61  1  0.06895600  0.18109100  0.29876900  1
  C  C62  1  0.41550100  0.47024700  0.95603200  1
  C  C63  1  0.82600900  0.02900200  0.54228100  1
  C  C64  1  0.02388200  0.60169900  0.45261200  1
  C  C65  1  0.29413600  0.74706600  0.18401400  1
