# generated using pymatgen
data_Cu8Ni2C5
_symmetry_space_group_name_H-M   'P 1'
_cell_length_a   4.82021250
_cell_length_b   4.82402700
_cell_length_c   16.06278257
_cell_angle_alpha   90.00000000
_cell_angle_beta   89.47994190
_cell_angle_gamma   90.00000000
_symmetry_Int_Tables_number   1
_chemical_formula_structural   Cu8Ni2C5
_chemical_formula_sum   'Cu16 Ni4 C10'
_cell_volume   373.48985104
_cell_formula_units_Z   2
loop_
 _symmetry_equiv_pos_site_id
 _symmetry_equiv_pos_as_xyz
  1  'x, y, z'
loop_
 _atom_site_type_symbol
 _atom_site_label
 _atom_site_symmetry_multiplicity
 _atom_site_fract_x
 _atom_site_fract_y
 _atom_site_fract_z
 _atom_site_occupancy
  C  C0  1  0.00000000  0.00000000  0.00000000  1
  C  C1  1  0.99592400  0.01310800  0.19226100  1
  C  C2  1  0.97375800  0.97195200  0.39910300  1
  C  C3  1  0.02624200  0.02804800  0.60089700  1
  C  C4  1  0.00407600  0.98689200  0.80773900  1
  C  C5  1  0.52624200  0.47195200  0.10089700  1
  C  C6  1  0.50000000  0.50000000  0.50000000  1
  C  C7  1  0.50407600  0.51310800  0.30773900  1
  C  C8  1  0.49592400  0.48689200  0.69226100  1
  C  C9  1  0.47375800  0.52804800  0.89910300  1
  Ni  Ni10  1  0.17400200  0.82355500  0.89531200  1
  Ni  Ni11  1  0.32599800  0.32355500  0.60468800  1
  Ni  Ni12  1  0.67400200  0.67644500  0.39531200  1
  Ni  Ni13  1  0.82599800  0.17644500  0.10468800  1
  Cu  Cu14  1  0.21757400  0.78676100  0.11007500  1
  Cu  Cu15  1  0.19400800  0.79736600  0.29000700  1
  Cu  Cu16  1  0.19447400  0.80346700  0.49890700  1
  Cu  Cu17  1  0.20429500  0.80408700  0.70784600  1
  Cu  Cu18  1  0.30552600  0.30346700  0.00109300  1
  Cu  Cu19  1  0.30599200  0.29736600  0.20999300  1
  Cu  Cu20  1  0.28242600  0.28676100  0.38992500  1
  Cu  Cu21  1  0.29570500  0.30408700  0.79215400  1
  Cu  Cu22  1  0.69447400  0.69653300  0.99890700  1
  Cu  Cu23  1  0.70429500  0.69591300  0.20784600  1
  Cu  Cu24  1  0.71757400  0.71323900  0.61007500  1
  Cu  Cu25  1  0.69400800  0.70263400  0.79000700  1
  Cu  Cu26  1  0.80552600  0.19653300  0.50109300  1
  Cu  Cu27  1  0.79570500  0.19591300  0.29215400  1
  Cu  Cu28  1  0.78242600  0.21323900  0.88992500  1
  Cu  Cu29  1  0.80599200  0.20263400  0.70999300  1
