# generated using pymatgen
data_Cu(NiC)2
_symmetry_space_group_name_H-M   'P 1'
_cell_length_a   8.72745000
_cell_length_b   8.72722029
_cell_length_c   8.73237902
_cell_angle_alpha   109.43804720
_cell_angle_beta   109.44509743
_cell_angle_gamma   109.44282328
_symmetry_Int_Tables_number   1
_chemical_formula_structural   Cu(NiC)2
_chemical_formula_sum   'Cu8 Ni16 C16'
_cell_volume   512.55812789
_cell_formula_units_Z   8
loop_
 _symmetry_equiv_pos_site_id
 _symmetry_equiv_pos_as_xyz
  1  'x, y, z'
loop_
 _atom_site_type_symbol
 _atom_site_label
 _atom_site_symmetry_multiplicity
 _atom_site_fract_x
 _atom_site_fract_y
 _atom_site_fract_z
 _atom_site_occupancy
  C  C0  1  0.21922900  0.25851100  0.97067100  1
  C  C1  1  0.99621200  0.48936100  0.99084200  1
  C  C2  1  0.75292400  0.97278800  0.72073100  1
  C  C3  1  0.25129700  0.53633500  0.78507900  1
  C  C4  1  0.53810200  0.78242200  0.24366800  1
  C  C5  1  0.03138400  0.28184500  0.25269800  1
  C  C6  1  0.98727500  0.99060700  0.48335300  1
  C  C7  1  0.50779500  0.50058900  0.51119000  1
  C  C8  1  0.51319900  0.01036300  0.00471000  1
  C  C9  1  0.72088700  0.25607600  0.47146600  1
  C  C10  1  0.28957600  0.75273200  0.53923400  1
  C  C11  1  0.46898000  0.21254000  0.75225000  1
  C  C12  1  0.95418200  0.70798500  0.74082500  1
  C  C13  1  0.74167300  0.46035400  0.20832400  1
  C  C14  1  0.24973800  0.03481400  0.29622000  1
  C  C15  1  0.77904000  0.74710900  0.03209700  1
  Ni  Ni16  1  0.27526700  0.53299900  0.05050400  1
  Ni  Ni17  1  0.25979100  0.48895300  0.53354200  1
  Ni  Ni18  1  0.77046100  0.04388100  0.51257300  1
  Ni  Ni19  1  0.53121300  0.76294400  0.98780800  1
  Ni  Ni20  1  0.46203500  0.23645600  0.01077000  1
  Ni  Ni21  1  0.96949700  0.46134200  0.73078600  1
  Ni  Ni22  1  0.22307200  0.94936100  0.48700600  1
  Ni  Ni23  1  0.73087200  0.74095700  0.77161500  1
  Ni  Ni24  1  0.99305600  0.03413800  0.26118000  1
  Ni  Ni25  1  0.77251900  0.22722400  0.23855700  1
  Ni  Ni26  1  0.73939400  0.51639300  0.46652000  1
  Ni  Ni27  1  0.54275800  0.00649100  0.77103100  1
  Ni  Ni28  1  0.76011000  0.72740500  0.27331600  1
  Ni  Ni29  1  0.95647500  0.22671800  0.96835300  1
  Ni  Ni30  1  0.73045500  0.46656800  0.95346500  1
  Ni  Ni31  1  0.50735700  0.27094700  0.54085500  1
  Cu  Cu32  1  0.48186500  0.72527700  0.45092300  1
  Cu  Cu33  1  0.23583800  0.27225600  0.72876800  1
  Cu  Cu34  1  0.05301000  0.77586700  0.03689500  1
  Cu  Cu35  1  0.44781400  0.98591400  0.22219900  1
  Cu  Cu36  1  0.22471900  0.77505600  0.76010100  1
  Cu  Cu37  1  0.01978600  0.96786200  0.74032100  1
  Cu  Cu38  1  0.27490900  0.26211200  0.22657900  1
  Cu  Cu39  1  0.03623100  0.54844700  0.27297100  1
