# generated using pymatgen
data_CuNiC12
_symmetry_space_group_name_H-M   'P 1'
_cell_length_a   6.55658600
_cell_length_b   4.79947300
_cell_length_c   10.66260279
_cell_angle_alpha   87.10650719
_cell_angle_beta   90.00000000
_cell_angle_gamma   90.00000000
_symmetry_Int_Tables_number   1
_chemical_formula_structural   CuNiC12
_chemical_formula_sum   'Cu2 Ni2 C24'
_cell_volume   335.10469221
_cell_formula_units_Z   2
loop_
 _symmetry_equiv_pos_site_id
 _symmetry_equiv_pos_as_xyz
  1  'x, y, z'
loop_
 _atom_site_type_symbol
 _atom_site_label
 _atom_site_symmetry_multiplicity
 _atom_site_fract_x
 _atom_site_fract_y
 _atom_site_fract_z
 _atom_site_occupancy
  C  C0  1  0.00000000  0.00000000  0.00000000  1
  C  C1  1  0.50000000  0.00000000  0.00000000  1
  C  C2  1  0.00000000  0.50000000  0.50000000  1
  C  C3  1  0.50000000  0.50000000  0.50000000  1
  Ni  Ni4  1  0.25000000  0.96715700  0.70864000  1
  Ni  Ni5  1  0.75000000  0.03284300  0.29136000  1
  Cu  Cu6  1  0.75000000  0.47613100  0.78647800  1
  Cu  Cu7  1  0.25000000  0.52386900  0.21352200  1
  C  C8  1  0.25000000  0.40927000  0.91602400  1
  C  C9  1  0.75000000  0.91057400  0.58617100  1
  C  C10  1  0.25000000  0.08942600  0.41382900  1
  C  C11  1  0.75000000  0.59073000  0.08397600  1
  C  C12  1  0.75000000  0.74123300  0.94474800  1
  C  C13  1  0.25000000  0.72702800  0.92200900  1
  C  C14  1  0.05877000  0.28606700  0.85265200  1
  C  C15  1  0.44123000  0.28606700  0.85265200  1
  C  C16  1  0.56250000  0.78247000  0.66599400  1
  C  C17  1  0.93750000  0.78247000  0.66599400  1
  C  C18  1  0.75000000  0.23102600  0.57642800  1
  C  C19  1  0.25000000  0.22215900  0.54297700  1
  C  C20  1  0.75000000  0.77784100  0.45702300  1
  C  C21  1  0.25000000  0.76897400  0.42357200  1
  C  C22  1  0.06250000  0.21753000  0.33400600  1
  C  C23  1  0.43750000  0.21753000  0.33400600  1
  C  C24  1  0.55877000  0.71393300  0.14734800  1
  C  C25  1  0.94123000  0.71393300  0.14734800  1
  C  C26  1  0.75000000  0.27297200  0.07799100  1
  C  C27  1  0.25000000  0.25876700  0.05525200  1
