# generated using pymatgen
data_Cu3NiC2
_symmetry_space_group_name_H-M   'P 1'
_cell_length_a   5.17885200
_cell_length_b   7.15166119
_cell_length_c   7.54998025
_cell_angle_alpha   78.92283122
_cell_angle_beta   89.18760757
_cell_angle_gamma   89.73037082
_symmetry_Int_Tables_number   1
_chemical_formula_structural   Cu3NiC2
_chemical_formula_sum   'Cu12 Ni4 C8'
_cell_volume   274.39372369
_cell_formula_units_Z   4
loop_
 _symmetry_equiv_pos_site_id
 _symmetry_equiv_pos_as_xyz
  1  'x, y, z'
loop_
 _atom_site_type_symbol
 _atom_site_label
 _atom_site_symmetry_multiplicity
 _atom_site_fract_x
 _atom_site_fract_y
 _atom_site_fract_z
 _atom_site_occupancy
  C  C0  1  0.21387700  0.16079400  0.16312000  1
  C  C1  1  0.78612300  0.83920600  0.83688000  1
  C  C2  1  0.28622200  0.66131300  0.17856100  1
  C  C3  1  0.75796100  0.83187200  0.32445600  1
  C  C4  1  0.26019600  0.68264300  0.68007500  1
  C  C5  1  0.73980400  0.31735700  0.31992500  1
  C  C6  1  0.24203900  0.16812800  0.67554400  1
  C  C7  1  0.71377800  0.33868700  0.82143900  1
  Ni  Ni8  1  0.59638000  0.57718100  0.29963100  1
  Ni  Ni9  1  0.11540000  0.92219200  0.68923200  1
  Ni  Ni10  1  0.88460000  0.07780800  0.31076800  1
  Ni  Ni11  1  0.40362000  0.42281900  0.70036900  1
  Cu  Cu12  1  0.42327400  0.92060400  0.19144100  1
  Cu  Cu13  1  0.95852900  0.80354200  0.09153400  1
  Cu  Cu14  1  0.09568900  0.68702600  0.42567000  1
  Cu  Cu15  1  0.08301800  0.42774900  0.19314000  1
  Cu  Cu16  1  0.57477800  0.31384200  0.06963900  1
  Cu  Cu17  1  0.59214500  0.79772500  0.56986600  1
  Cu  Cu18  1  0.40785500  0.20227500  0.43013400  1
  Cu  Cu19  1  0.42522200  0.68615800  0.93036100  1
  Cu  Cu20  1  0.91698200  0.57225100  0.80686000  1
  Cu  Cu21  1  0.90431100  0.31297400  0.57433000  1
  Cu  Cu22  1  0.04147100  0.19645800  0.90846600  1
  Cu  Cu23  1  0.57672600  0.07939600  0.80855900  1
