# generated using pymatgen
data_Cu3NiC36
_symmetry_space_group_name_H-M   'P 1'
_cell_length_a   10.24209006
_cell_length_b   10.20855176
_cell_length_c   16.67956523
_cell_angle_alpha   89.50790260
_cell_angle_beta   90.01221298
_cell_angle_gamma   108.51801282
_symmetry_Int_Tables_number   1
_chemical_formula_structural   Cu3NiC36
_chemical_formula_sum   'Cu12 Ni4 C144'
_cell_volume   1653.60121126
_cell_formula_units_Z   4
loop_
 _symmetry_equiv_pos_site_id
 _symmetry_equiv_pos_as_xyz
  1  'x, y, z'
loop_
 _atom_site_type_symbol
 _atom_site_label
 _atom_site_symmetry_multiplicity
 _atom_site_fract_x
 _atom_site_fract_y
 _atom_site_fract_z
 _atom_site_occupancy
  C  C0  1  0.06002949  0.93875525  0.81336175  1
  C  C1  1  0.06272568  0.43773630  0.68772686  1
  C  C2  1  0.18938647  0.81269906  0.43843515  1
  C  C3  1  0.24941448  0.50004278  0.87594467  1
  C  C4  1  0.24936516  0.49963335  0.37607796  1
  C  C5  1  0.31100549  0.68894478  0.06101605  1
  C  C6  1  0.18430610  0.31069940  0.06222173  1
  C  C7  1  0.43964721  0.56136235  0.68647529  1
  C  C8  1  0.25033244  0.00195476  0.62428392  1
  C  C9  1  0.56207726  0.93910164  0.18731922  1
  C  C10  1  0.31325244  0.18815401  0.43774169  1
  C  C11  1  0.25046920  0.99974731  0.12380866  1
  C  C12  1  0.68832730  0.81169272  0.56214156  1
  C  C13  1  0.43776676  0.06324788  0.81260712  1
  C  C14  1  0.56221057  0.43660422  0.31351320  1
  C  C15  1  0.81411619  0.68943367  0.93787020  1
  C  C16  1  0.68788043  0.30982803  0.93872054  1
  C  C17  1  0.74916649  0.49964592  0.62524910  1
  C  C18  1  0.74956002  0.49888293  0.12448867  1
  C  C19  1  0.75104409  0.00097325  0.87480292  1
  C  C20  1  0.81169941  0.18854579  0.56192247  1
  C  C21  1  0.93741090  0.55998567  0.31234680  1
  C  C22  1  0.75059011  0.99895222  0.37535229  1
  C  C23  1  0.93795998  0.06303335  0.18652459  1
  Ni  Ni24  1  0.00001308  0.50009143  0.49998744  1
  Ni  Ni25  1  0.00061663  0.00031605  0.50021672  1
  Ni  Ni26  1  0.74950942  0.75049577  0.75036185  1
  Ni  Ni27  1  0.50017325  0.99991428  0.00002966  1
  Cu  Cu28  1  0.99942384  0.50031044  0.00002839  1
  Cu  Cu29  1  0.24976522  0.75076945  0.74981143  1
  Cu  Cu30  1  0.25007813  0.74999910  0.24994356  1
  Cu  Cu31  1  0.00003377  0.00010601  0.00010813  1
  Cu  Cu32  1  0.24997993  0.25068796  0.74976903  1
  Cu  Cu33  1  0.25048835  0.24937909  0.24965257  1
  Cu  Cu34  1  0.49991018  0.49988765  0.49985796  1
  Cu  Cu35  1  0.49936356  0.49948356  0.99970496  1
  Cu  Cu36  1  0.50054039  0.99968034  0.50001464  1
  Cu  Cu37  1  0.74997665  0.74922871  0.25022729  1
  Cu  Cu38  1  0.74995318  0.25002596  0.75005191  1
  Cu  Cu39  1  0.75027495  0.24929411  0.25024887  1
  C  C40  1  0.99897719  0.75193813  0.62393142  1
  C  C41  1  0.06188916  0.93796251  0.31289900  1
  C  C42  1  0.99959833  0.74976090  0.12556211  1
  C  C43  1  0.18321659  0.80886811  0.93728137  1
  C  C44  1  0.00031701  0.25117762  0.87497762  1
  C  C45  1  0.00139965  0.24836002  0.37639555  1
  C  C46  1  0.06230309  0.43724237  0.18856165  1
  C  C47  1  0.31580391  0.69147584  0.56270090  1
  C  C48  1  0.19100649  0.31807582  0.56189810  1
  C  C49  1  0.49960864  0.75133170  0.87646900  1
  C  C50  1  0.56556668  0.93771381  0.68903706  1
  C  C51  1  0.31083959  0.18480725  0.93858432  1
  C  C52  1  0.50037437  0.75038402  0.37437026  1
  C  C53  1  0.43796696  0.56135806  0.18730472  1
  C  C54  1  0.55971192  0.43453800  0.81207092  1
  C  C55  1  0.49970558  0.24872218  0.62511162  1
  C  C56  1  0.43792768  0.06256893  0.31147163  1
  C  C57  1  0.68832576  0.81384559  0.06175444  1
  C  C58  1  0.50007727  0.24843077  0.12317601  1
  C  C59  1  0.80984087  0.68321261  0.43782280  1
  C  C60  1  0.68478717  0.30903593  0.43756091  1
  C  C61  1  0.93419391  0.56247568  0.81098042  1
  C  C62  1  0.81616830  0.19062163  0.06254068  1
  C  C63  1  0.94042546  0.06610019  0.68762611  1
  C  C64  1  0.01194521  0.90229400  0.10405523  1
  C  C65  1  0.04794434  0.84771920  0.93877335  1
  C  C66  1  0.06083032  0.85681587  0.55323557  1
  C  C67  1  0.10494995  0.98758566  0.40034914  1
  C  C68  1  0.10260022  0.81343224  0.69276632  1
  C  C69  1  0.10279451  0.80329761  0.30906193  1
  C  C70  1  0.01047925  0.39964650  0.39719688  1
  C  C71  1  0.08989603  0.59026277  0.79516524  1
  C  C72  1  0.15089295  0.76197579  0.14714501  1
  C  C73  1  0.05437341  0.35775940  0.55633068  1
  C  C74  1  0.15873448  0.65105068  0.95378351  1
  C  C75  1  0.06057086  0.35272762  0.94450361  1
  C  C76  1  0.10674224  0.48938495  0.10177134  1
  C  C77  1  0.23711154  0.85304806  0.85002192  1
  C  C78  1  0.13483152  0.54341658  0.25374681  1
  C  C79  1  0.21192765  0.62106756  0.49699959  1
  C  C80  1  0.10250740  0.31158911  0.80483620  1
  C  C81  1  0.10109009  0.30117750  0.19266910  1
  C  C82  1  0.28631167  0.87901007  0.00326010  1
  C  C83  1  0.26243932  0.64790901  0.65014015  1
  C  C84  1  0.36538511  0.95663904  0.24611187  1
  C  C85  1  0.33986239  0.84905829  0.54599105  1
  C  C86  1  0.09689235  0.09210310  0.70476360  1
  C  C87  1  0.15244531  0.26044235  0.35577699  1
  C  C88  1  0.40993369  0.91061633  0.70464763  1
  C  C89  1  0.34901077  0.73790140  0.35266960  1
  C  C90  1  0.16813520  0.16386394  0.54684596  1
  C  C91  1  0.23876232  0.36292056  0.64889268  1
  C  C92  1  0.13651894  0.04671083  0.24793455  1
  C  C93  1  0.39812284  0.69105683  0.80665642  1
  C  C94  1  0.39741498  0.69626916  0.19095183  1
  C  C95  1  0.20326748  0.11158498  0.00404014  1
  C  C96  1  0.29747156  0.39253519  0.49574276  1
  C  C97  1  0.50986800  0.90366809  0.89763065  1
  C  C98  1  0.26117689  0.14173670  0.85193010  1
  C  C99  1  0.36350596  0.45238037  0.25210901  1
  C  C100  1  0.43685493  0.64760871  0.94634810  1
  C  C101  1  0.33717651  0.34066252  0.95462776  1
  C  C102  1  0.39517729  0.51140805  0.10014528  1
  C  C103  1  0.45104346  0.65260515  0.56096036  1
  C  C104  1  0.40309630  0.40883658  0.79508113  1
  C  C105  1  0.55341724  0.85544199  0.05732047  1
  C  C106  1  0.34889456  0.23662339  0.14387162  1
  C  C107  1  0.60890610  0.98700589  0.60178940  1
  C  C108  1  0.56015986  0.85241434  0.44371630  1
  C  C109  1  0.48919796  0.59844285  0.39566727  1
  C  C110  1  0.39697013  0.18831765  0.69511777  1
  C  C111  1  0.39907520  0.19861664  0.30742961  1
  C  C112  1  0.60726326  0.80169909  0.69389704  1
  C  C113  1  0.60410387  0.81082909  0.30450657  1
  C  C114  1  0.51081280  0.40058658  0.60350495  1
  C  C115  1  0.44019753  0.14652775  0.55567277  1
  C  C116  1  0.39321329  0.01036750  0.39812566  1
  C  C117  1  0.65109395  0.76315918  0.85643029  1
  C  C118  1  0.44627651  0.14400048  0.94332607  1
  C  C119  1  0.59280409  0.58632824  0.20509364  1
  C  C120  1  0.54956267  0.34783422  0.43958749  1
  C  C121  1  0.60190729  0.48668846  0.89886455  1
  C  C122  1  0.66180663  0.65830943  0.04517044  1
  C  C123  1  0.56218672  0.35205243  0.05319178  1
  C  C124  1  0.63121597  0.54044854  0.74629538  1
  C  C125  1  0.73742903  0.85610400  0.14899867  1
  C  C126  1  0.48894009  0.09570915  0.10205386  1
  C  C127  1  0.70253815  0.60811772  0.50321062  1
  C  C128  1  0.79662250  0.88783267  0.99701975  1
  C  C129  1  0.60050175  0.29923717  0.81012934  1
  C  C130  1  0.60118432  0.30800214  0.19285878  1
  C  C131  1  0.86898624  0.96053266  0.75369832  1
  C  C132  1  0.76258333  0.63933960  0.35021394  1
  C  C133  1  0.83273184  0.83723589  0.45322287  1
  C  C134  1  0.65102811  0.26113966  0.64688794  1
  C  C135  1  0.59398531  0.08762525  0.29478150  1
  C  C136  1  0.84770177  0.74006653  0.64384169  1
  C  C137  1  0.90728318  0.91282438  0.29491381  1
  C  C138  1  0.66055012  0.15129328  0.45389655  1
  C  C139  1  0.63747294  0.04364054  0.75412695  1
  C  C140  1  0.73789843  0.35308095  0.35022641  1
  C  C141  1  0.89268915  0.69859833  0.80603059  1
  C  C142  1  0.71318434  0.12075517  0.99643800  1
  C  C143  1  0.89650620  0.68918644  0.19559044  1
  C  C144  1  0.78862832  0.37919166  0.50333411  1
  C  C145  1  0.86235998  0.45637800  0.74600120  1
  C  C146  1  0.76246032  0.14601925  0.14964720  1
  C  C147  1  0.89103027  0.51315918  0.89833285  1
  C  C148  1  0.93903405  0.64834073  0.05614413  1
  C  C149  1  0.84081512  0.34859710  0.04637286  1
  C  C150  1  0.94587888  0.64272949  0.44309528  1
  C  C151  1  0.84907590  0.23900815  0.85328700  1
  C  C152  1  0.90618519  0.41156630  0.20549024  1
  C  C153  1  0.99072461  0.60100246  0.60315367  1
  C  C154  1  0.89926848  0.20121351  0.68984061  1
  C  C155  1  0.89811489  0.18763071  0.30772303  1
  C  C156  1  0.89793097  0.01421719  0.60060222  1
  C  C157  1  0.94025085  0.14334395  0.44704091  1
  C  C158  1  0.95141269  0.15180405  0.06072868  1
  C  C159  1  0.98797205  0.09867040  0.89676331  1
