# generated using pymatgen
data_Cu3Ni3C22
_symmetry_space_group_name_H-M   'P 1'
_cell_length_a   6.05401773
_cell_length_b   6.05401773
_cell_length_c   9.75156805
_cell_angle_alpha   89.64802920
_cell_angle_beta   89.64802920
_cell_angle_gamma   59.47672787
_symmetry_Int_Tables_number   1
_chemical_formula_structural   Cu3Ni3C22
_chemical_formula_sum   'Cu3 Ni3 C22'
_cell_volume   307.87001721
_cell_formula_units_Z   1
loop_
 _symmetry_equiv_pos_site_id
 _symmetry_equiv_pos_as_xyz
  1  'x, y, z'
loop_
 _atom_site_type_symbol
 _atom_site_label
 _atom_site_symmetry_multiplicity
 _atom_site_fract_x
 _atom_site_fract_y
 _atom_site_fract_z
 _atom_site_occupancy
  C  C0  1  0.66738700  0.66738700  0.90447200  1
  C  C1  1  0.00988700  0.00988700  0.99257700  1
  C  C2  1  0.00621800  0.00621800  0.49536600  1
  C  C3  1  0.33404000  0.33404000  0.38610100  1
  C  C4  1  0.66280400  0.66280400  0.48846600  1
  C  C5  1  0.32918400  0.32918400  0.99626500  1
  Ni  Ni6  1  0.83238300  0.83238300  0.21795500  1
  Ni  Ni7  1  0.63739500  0.18662900  0.71330800  1
  Ni  Ni8  1  0.18662900  0.63739500  0.71330800  1
  Cu  Cu9  1  0.83026900  0.34160100  0.21435400  1
  Cu  Cu10  1  0.34160100  0.83026900  0.21435400  1
  Cu  Cu11  1  0.16552400  0.16552400  0.71098400  1
  C  C12  1  0.82702500  0.33453400  0.59684700  1
  C  C13  1  0.52376000  0.52376000  0.34103700  1
  C  C14  1  0.66996100  0.66996100  0.10630400  1
  C  C15  1  0.00316300  0.00316300  0.31130900  1
  C  C16  1  0.00167300  0.00167300  0.80831500  1
  C  C17  1  0.33453400  0.82702500  0.59684700  1
  C  C18  1  0.95991800  0.52024200  0.34092200  1
  C  C19  1  0.52024200  0.95991800  0.34092200  1
  C  C20  1  0.16949200  0.16949200  0.09762300  1
  C  C21  1  0.83141000  0.83141000  0.59137200  1
  C  C22  1  0.48034800  0.04246400  0.84115100  1
  C  C23  1  0.04246400  0.48034800  0.84115100  1
  C  C24  1  0.31851500  0.31851500  0.58623900  1
  C  C25  1  0.66951600  0.16119000  0.09974500  1
  C  C26  1  0.48389800  0.48389800  0.86080800  1
  C  C27  1  0.16119000  0.66951600  0.09974500  1
