# generated using pymatgen
data_Cu4NiC3
_symmetry_space_group_name_H-M   'P 1'
_cell_length_a   5.44814000
_cell_length_b   7.20342100
_cell_length_c   9.60725500
_cell_angle_alpha   90.00000000
_cell_angle_beta   90.00000000
_cell_angle_gamma   90.00000000
_symmetry_Int_Tables_number   1
_chemical_formula_structural   Cu4NiC3
_chemical_formula_sum   'Cu16 Ni4 C12'
_cell_volume   377.03908669
_cell_formula_units_Z   4
loop_
 _symmetry_equiv_pos_site_id
 _symmetry_equiv_pos_as_xyz
  1  'x, y, z'
loop_
 _atom_site_type_symbol
 _atom_site_label
 _atom_site_symmetry_multiplicity
 _atom_site_fract_x
 _atom_site_fract_y
 _atom_site_fract_z
 _atom_site_occupancy
  C  C0  1  0.49948500  0.70146900  0.28037900  1
  C  C1  1  0.03418700  0.87480300  0.42822400  1
  C  C2  1  0.46581300  0.12519700  0.92822400  1
  C  C3  1  0.00051500  0.29853100  0.78037900  1
  C  C4  1  0.50051500  0.20146900  0.21962100  1
  C  C5  1  0.96581300  0.37480300  0.07177600  1
  C  C6  1  0.53418700  0.62519700  0.57177600  1
  C  C7  1  0.99948500  0.79853100  0.71962100  1
  C  C8  1  0.97283200  0.94835300  0.05234000  1
  C  C9  1  0.52716800  0.05164700  0.55234000  1
  C  C10  1  0.02716800  0.44835300  0.44766000  1
  C  C11  1  0.47283200  0.55164700  0.94766000  1
  Ni  Ni12  1  0.75336400  0.89987800  0.57888300  1
  Ni  Ni13  1  0.74663600  0.10012200  0.07888300  1
  Ni  Ni14  1  0.24663600  0.39987800  0.92111700  1
  Ni  Ni15  1  0.25336400  0.60012200  0.42111700  1
  Cu  Cu16  1  0.27282700  0.76582500  0.00217700  1
  Cu  Cu17  1  0.77282700  0.73417500  0.99782300  1
  Cu  Cu18  1  0.00620400  0.85194500  0.23546200  1
  Cu  Cu19  1  0.24945500  0.88965900  0.58931000  1
  Cu  Cu20  1  0.48573800  0.98870500  0.35185000  1
  Cu  Cu21  1  0.01426200  0.01129500  0.85185000  1
  Cu  Cu22  1  0.25054500  0.11034100  0.08931000  1
  Cu  Cu23  1  0.49379600  0.14805500  0.73546200  1
  Cu  Cu24  1  0.22717300  0.23417500  0.50217700  1
  Cu  Cu25  1  0.72717300  0.26582500  0.49782300  1
  Cu  Cu26  1  0.99379600  0.35194500  0.26453800  1
  Cu  Cu27  1  0.75054500  0.38965900  0.91069000  1
  Cu  Cu28  1  0.51426200  0.48870500  0.14815000  1
  Cu  Cu29  1  0.98573800  0.51129500  0.64815000  1
  Cu  Cu30  1  0.74945500  0.61034100  0.41069000  1
  Cu  Cu31  1  0.50620400  0.64805500  0.76453800  1
