# generated using pymatgen
data_CuNiC
_symmetry_space_group_name_H-M   'P 1'
_cell_length_a   4.77401800
_cell_length_b   4.77720100
_cell_length_c   9.21509200
_cell_angle_alpha   90.00000000
_cell_angle_beta   90.00000000
_cell_angle_gamma   90.00000000
_symmetry_Int_Tables_number   1
_chemical_formula_structural   CuNiC
_chemical_formula_sum   'Cu6 Ni6 C6'
_cell_volume   210.16347563
_cell_formula_units_Z   6
loop_
 _symmetry_equiv_pos_site_id
 _symmetry_equiv_pos_as_xyz
  1  'x, y, z'
loop_
 _atom_site_type_symbol
 _atom_site_label
 _atom_site_symmetry_multiplicity
 _atom_site_fract_x
 _atom_site_fract_y
 _atom_site_fract_z
 _atom_site_occupancy
  C  C0  1  0.97256500  0.72005300  0.66753200  1
  C  C1  1  0.97256500  0.72005300  0.33246800  1
  C  C2  1  0.05627900  0.77046500  0.00000000  1
  C  C3  1  0.55627900  0.22953500  0.50000000  1
  C  C4  1  0.47256500  0.27994700  0.83246800  1
  C  C5  1  0.47256500  0.27994700  0.16753200  1
  Ni  Ni6  1  0.19063100  0.57158200  0.16972600  1
  Ni  Ni7  1  0.19063100  0.57158200  0.83027400  1
  Ni  Ni8  1  0.31570200  0.08075100  0.00000000  1
  Ni  Ni9  1  0.69063100  0.42841800  0.66972600  1
  Ni  Ni10  1  0.69063100  0.42841800  0.33027400  1
  Ni  Ni11  1  0.81570200  0.91924900  0.50000000  1
  Cu  Cu12  1  0.19751800  0.52989500  0.50000000  1
  Cu  Cu13  1  0.30203400  0.04683700  0.66409900  1
  Cu  Cu14  1  0.30203400  0.04683700  0.33590100  1
  Cu  Cu15  1  0.69751800  0.47010500  0.00000000  1
  Cu  Cu16  1  0.80203400  0.95316300  0.83590100  1
  Cu  Cu17  1  0.80203400  0.95316300  0.16409900  1
