# generated using pymatgen
data_Cu3Ni3C22
_symmetry_space_group_name_H-M   'P 1'
_cell_length_a   5.81475561
_cell_length_b   5.81475561
_cell_length_c   9.52680224
_cell_angle_alpha   89.90560867
_cell_angle_beta   89.90560867
_cell_angle_gamma   59.99101609
_symmetry_Int_Tables_number   1
_chemical_formula_structural   Cu3Ni3C22
_chemical_formula_sum   'Cu3 Ni3 C22'
_cell_volume   278.93345508
_cell_formula_units_Z   1
loop_
 _symmetry_equiv_pos_site_id
 _symmetry_equiv_pos_as_xyz
  1  'x, y, z'
loop_
 _atom_site_type_symbol
 _atom_site_label
 _atom_site_symmetry_multiplicity
 _atom_site_fract_x
 _atom_site_fract_y
 _atom_site_fract_z
 _atom_site_occupancy
  C  C0  1  0.67085400  0.67085400  0.10272000  1
  C  C1  1  0.99678900  0.99678900  0.00277100  1
  C  C2  1  0.99886300  0.99886300  0.50414400  1
  C  C3  1  0.33611500  0.33611500  0.60262300  1
  Ni  Ni4  1  0.82974100  0.82974100  0.78518500  1
  Ni  Ni5  1  0.16994600  0.66339300  0.28599600  1
  Ni  Ni6  1  0.66339300  0.16994600  0.28599600  1
  Cu  Cu7  1  0.33546700  0.83119600  0.78908400  1
  Cu  Cu8  1  0.83119600  0.33546700  0.78908400  1
  Cu  Cu9  1  0.16978500  0.16978500  0.28629500  1
  C  C10  1  0.66436100  0.66436100  0.50943600  1
  C  C11  1  0.33240300  0.33240300  0.01200300  1
  C  C12  1  0.31822900  0.83587200  0.39742700  1
  C  C13  1  0.51946300  0.51946300  0.66736600  1
  C  C14  1  0.67049900  0.67049900  0.89555100  1
  C  C15  1  0.99519200  0.99519200  0.68800500  1
  C  C16  1  0.99678400  0.99678400  0.18775500  1
  C  C17  1  0.83587200  0.31822900  0.39742700  1
  C  C18  1  0.51947200  0.96374500  0.66683300  1
  C  C19  1  0.96374500  0.51947200  0.66683300  1
  C  C20  1  0.16037000  0.16037000  0.89349200  1
  C  C21  1  0.84026000  0.84026000  0.39521600  1
  C  C22  1  0.03751300  0.48857700  0.16577500  1
  C  C23  1  0.48857700  0.03751300  0.16577500  1
  C  C24  1  0.33860200  0.33860200  0.39252800  1
  C  C25  1  0.16024800  0.67771400  0.89525900  1
  C  C26  1  0.48361000  0.48361000  0.16682000  1
  C  C27  1  0.67771400  0.16024800  0.89525900  1
