# generated using pymatgen
data_Cu(NiC3)3
_symmetry_space_group_name_H-M   'P 1'
_cell_length_a   7.34857200
_cell_length_b   12.52136500
_cell_length_c   18.51973300
_cell_angle_alpha   90.00000000
_cell_angle_beta   90.00000000
_cell_angle_gamma   90.00000000
_symmetry_Int_Tables_number   1
_chemical_formula_structural   Cu(NiC3)3
_chemical_formula_sum   'Cu4 Ni12 C36'
_cell_volume   1704.07753172
_cell_formula_units_Z   4
loop_
 _symmetry_equiv_pos_site_id
 _symmetry_equiv_pos_as_xyz
  1  'x, y, z'
loop_
 _atom_site_type_symbol
 _atom_site_label
 _atom_site_symmetry_multiplicity
 _atom_site_fract_x
 _atom_site_fract_y
 _atom_site_fract_z
 _atom_site_occupancy
  Ni  Ni0  1  0.75000000  0.04979300  0.90590600  1
  Ni  Ni1  1  0.75000000  0.18836000  0.47223700  1
  Ni  Ni2  1  0.25000000  0.23328500  0.67477700  1
  Ni  Ni3  1  0.75000000  0.26671500  0.17477700  1
  Ni  Ni4  1  0.25000000  0.31164000  0.97223700  1
  Ni  Ni5  1  0.25000000  0.45020700  0.40590600  1
  Ni  Ni6  1  0.75000000  0.54979300  0.59409400  1
  Ni  Ni7  1  0.75000000  0.68836000  0.02776300  1
  Ni  Ni8  1  0.25000000  0.73328500  0.82522300  1
  Ni  Ni9  1  0.75000000  0.76671500  0.32522300  1
  Ni  Ni10  1  0.25000000  0.81164000  0.52776300  1
  Ni  Ni11  1  0.25000000  0.95020700  0.09409400  1
  Cu  Cu12  1  0.25000000  0.03324500  0.32371900  1
  Cu  Cu13  1  0.75000000  0.46675500  0.82371900  1
  Cu  Cu14  1  0.25000000  0.53324500  0.17628100  1
  Cu  Cu15  1  0.75000000  0.96675500  0.67628100  1
  C  C16  1  0.48818800  0.06308600  0.58531400  1
  C  C17  1  0.01181200  0.06308600  0.58531400  1
  C  C18  1  0.51127900  0.07904800  0.22607800  1
  C  C19  1  0.98872100  0.07904800  0.22607800  1
  C  C20  1  0.75000000  0.16062200  0.74729900  1
  C  C21  1  0.25000000  0.17664900  0.83957600  1
  C  C22  1  0.49922000  0.13865000  0.03943100  1
  C  C23  1  0.00078000  0.13865000  0.03943100  1
  C  C24  1  0.25000000  0.19718900  0.42255300  1
  C  C25  1  0.75000000  0.30281100  0.92255300  1
  C  C26  1  0.99922000  0.36135000  0.53943100  1
  C  C27  1  0.50078000  0.36135000  0.53943100  1
  C  C28  1  0.75000000  0.32335100  0.33957600  1
  C  C29  1  0.25000000  0.33937800  0.24729900  1
  C  C30  1  0.01127900  0.42095200  0.72607800  1
  C  C31  1  0.48872100  0.42095200  0.72607800  1
  C  C32  1  0.98818800  0.43691400  0.08531400  1
  C  C33  1  0.51181200  0.43691400  0.08531400  1
  C  C34  1  0.48818800  0.56308600  0.91468600  1
  C  C35  1  0.01181200  0.56308600  0.91468600  1
  C  C36  1  0.98872100  0.57904800  0.27392200  1
  C  C37  1  0.51127900  0.57904800  0.27392200  1
  C  C38  1  0.75000000  0.66062200  0.75270100  1
  C  C39  1  0.25000000  0.67664900  0.66042400  1
  C  C40  1  0.49922000  0.63865000  0.46056900  1
  C  C41  1  0.00078000  0.63865000  0.46056900  1
  C  C42  1  0.25000000  0.69718900  0.07744700  1
  C  C43  1  0.75000000  0.80281100  0.57744700  1
  C  C44  1  0.99922000  0.86135000  0.96056900  1
  C  C45  1  0.50078000  0.86135000  0.96056900  1
  C  C46  1  0.75000000  0.82335100  0.16042400  1
  C  C47  1  0.25000000  0.83937800  0.25270100  1
  C  C48  1  0.48872100  0.92095200  0.77392200  1
  C  C49  1  0.01127900  0.92095200  0.77392200  1
  C  C50  1  0.98818800  0.93691400  0.41468600  1
  C  C51  1  0.51181200  0.93691400  0.41468600  1
