# generated using pymatgen
data_Cu12Ni2C
_symmetry_space_group_name_H-M   'P 1'
_cell_length_a   8.73390375
_cell_length_b   8.73390375
_cell_length_c   12.40479391
_cell_angle_alpha   61.19556095
_cell_angle_beta   61.19556095
_cell_angle_gamma   41.34588976
_symmetry_Int_Tables_number   1
_chemical_formula_structural   Cu12Ni2C
_chemical_formula_sum   'Cu24 Ni4 C2'
_cell_volume   535.83373548
_cell_formula_units_Z   2
loop_
 _symmetry_equiv_pos_site_id
 _symmetry_equiv_pos_as_xyz
  1  'x, y, z'
loop_
 _atom_site_type_symbol
 _atom_site_label
 _atom_site_symmetry_multiplicity
 _atom_site_fract_x
 _atom_site_fract_y
 _atom_site_fract_z
 _atom_site_occupancy
  C  C0  1  0.00000000  0.50000000  0.50000000  1
  C  C1  1  0.50000000  0.00000000  0.00000000  1
  Ni  Ni2  1  0.76638200  0.30658400  0.35977400  1
  Ni  Ni3  1  0.69341600  0.23361800  0.14022600  1
  Ni  Ni4  1  0.23361800  0.69341600  0.64022600  1
  Ni  Ni5  1  0.30658400  0.76638200  0.85977400  1
  Cu  Cu6  1  0.10662800  0.64074900  0.44592000  1
  Cu  Cu7  1  0.35925100  0.89337200  0.05408000  1
  Cu  Cu8  1  0.89337200  0.35925100  0.55408000  1
  Cu  Cu9  1  0.64074900  0.10662800  0.94592000  1
  Cu  Cu10  1  0.19794900  0.29866700  0.39804900  1
  Cu  Cu11  1  0.70133300  0.80205100  0.10195100  1
  Cu  Cu12  1  0.80205100  0.70133300  0.60195100  1
  Cu  Cu13  1  0.29866700  0.19794900  0.89804900  1
  Cu  Cu14  1  0.27526500  0.26241000  0.06045500  1
  Cu  Cu15  1  0.73759000  0.72473500  0.43954500  1
  Cu  Cu16  1  0.72473500  0.73759000  0.93954500  1
  Cu  Cu17  1  0.26241000  0.27526500  0.56045500  1
  Cu  Cu18  1  0.81845500  0.28513700  0.07947700  1
  Cu  Cu19  1  0.71486300  0.18154500  0.42052300  1
  Cu  Cu20  1  0.18154500  0.71486300  0.92052300  1
  Cu  Cu21  1  0.28513700  0.81845500  0.57947700  1
  Cu  Cu22  1  0.60497000  0.52695100  0.34017400  1
  Cu  Cu23  1  0.47304900  0.39503000  0.15982600  1
  Cu  Cu24  1  0.39503000  0.47304900  0.65982600  1
  Cu  Cu25  1  0.52695100  0.60497000  0.84017400  1
  Cu  Cu26  1  0.97916200  0.20841300  0.31934200  1
  Cu  Cu27  1  0.79158700  0.02083800  0.18065800  1
  Cu  Cu28  1  0.02083800  0.79158700  0.68065800  1
  Cu  Cu29  1  0.20841300  0.97916200  0.81934200  1
