# generated using pymatgen
data_Cu2Ni2C13
_symmetry_space_group_name_H-M   'P 1'
_cell_length_a   8.59792072
_cell_length_b   8.59792072
_cell_length_c   7.14522838
_cell_angle_alpha   84.03025792
_cell_angle_beta   84.03025792
_cell_angle_gamma   49.79659779
_symmetry_Int_Tables_number   1
_chemical_formula_structural   Cu2Ni2C13
_chemical_formula_sum   'Cu4 Ni4 C26'
_cell_volume   400.76042880
_cell_formula_units_Z   2
loop_
 _symmetry_equiv_pos_site_id
 _symmetry_equiv_pos_as_xyz
  1  'x, y, z'
loop_
 _atom_site_type_symbol
 _atom_site_label
 _atom_site_symmetry_multiplicity
 _atom_site_fract_x
 _atom_site_fract_y
 _atom_site_fract_z
 _atom_site_occupancy
  C  C0  1  0.76436700  0.23563300  0.00000000  1
  C  C1  1  0.23563300  0.76436700  0.00000000  1
  C  C2  1  0.61063000  0.61063000  0.29323800  1
  C  C3  1  0.38937000  0.38937000  0.70676200  1
  C  C4  1  0.00000000  0.50000000  0.50000000  1
  C  C5  1  0.50000000  0.00000000  0.50000000  1
  C  C6  1  0.00000000  0.50000000  0.00000000  1
  C  C7  1  0.50000000  0.00000000  0.00000000  1
  Ni  Ni8  1  0.37889600  0.37889600  0.22706100  1
  Ni  Ni9  1  0.62110400  0.62110400  0.77293900  1
  Ni  Ni10  1  0.11812800  0.11812800  0.29658100  1
  Ni  Ni11  1  0.88187200  0.88187200  0.70341900  1
  Cu  Cu12  1  0.05881100  0.05881100  0.60360500  1
  Cu  Cu13  1  0.94118900  0.94118900  0.39639500  1
  Cu  Cu14  1  0.18811200  0.18811200  0.82332100  1
  Cu  Cu15  1  0.81188800  0.81188800  0.17667900  1
  C  C16  1  0.47708800  0.47708800  0.21828600  1
  C  C17  1  0.52291200  0.52291200  0.78171400  1
  C  C18  1  0.33268800  0.33268800  0.42828500  1
  C  C19  1  0.66731200  0.66731200  0.57171500  1
  C  C20  1  0.17506400  0.52985400  0.11712400  1
  C  C21  1  0.52985400  0.17506400  0.11712400  1
  C  C22  1  0.82493600  0.47014600  0.88287600  1
  C  C23  1  0.47014600  0.82493600  0.88287600  1
  C  C24  1  0.99097400  0.34653900  0.23376200  1
  C  C25  1  0.34653900  0.99097400  0.23376200  1
  C  C26  1  0.00902600  0.65346100  0.76623800  1
  C  C27  1  0.65346100  0.00902600  0.76623800  1
  C  C28  1  0.02643800  0.02643800  0.23960800  1
  C  C29  1  0.97356200  0.97356200  0.76039200  1
  C  C30  1  0.11677000  0.11677100  0.52233000  1
  C  C31  1  0.88323000  0.88323000  0.47767000  1
  C  C32  1  0.24160400  0.24160400  0.88160700  1
  C  C33  1  0.75839600  0.75839600  0.11839300  1
