# generated using pymatgen
data_CuNiC10
_symmetry_space_group_name_H-M   'P 1'
_cell_length_a   5.92174400
_cell_length_b   4.83642300
_cell_length_c   9.90590243
_cell_angle_alpha   88.73810015
_cell_angle_beta   90.00000000
_cell_angle_gamma   90.00000000
_symmetry_Int_Tables_number   1
_chemical_formula_structural   CuNiC10
_chemical_formula_sum   'Cu2 Ni2 C20'
_cell_volume   283.63682314
_cell_formula_units_Z   2
loop_
 _symmetry_equiv_pos_site_id
 _symmetry_equiv_pos_as_xyz
  1  'x, y, z'
loop_
 _atom_site_type_symbol
 _atom_site_label
 _atom_site_symmetry_multiplicity
 _atom_site_fract_x
 _atom_site_fract_y
 _atom_site_fract_z
 _atom_site_occupancy
  Ni  Ni0  1  0.25000000  0.56377700  0.78427300  1
  Ni  Ni1  1  0.75000000  0.43622300  0.21572700  1
  Cu  Cu2  1  0.75000000  0.05473200  0.71865500  1
  Cu  Cu3  1  0.25000000  0.94526800  0.28134500  1
  C  C4  1  0.75000000  0.58258900  0.90194900  1
  C  C5  1  0.25000000  0.08734700  0.59807500  1
  C  C6  1  0.75000000  0.91265300  0.40192500  1
  C  C7  1  0.25000000  0.41741100  0.09805100  1
  C  C8  1  0.25000000  0.34803300  0.94701600  1
  C  C9  1  0.75000000  0.27036500  0.88410200  1
  C  C10  1  0.95009400  0.73672800  0.82857700  1
  C  C11  1  0.54990600  0.73672800  0.82857700  1
  C  C12  1  0.04390500  0.22478700  0.67219400  1
  C  C13  1  0.45609500  0.22478700  0.67219400  1
  C  C14  1  0.25000000  0.77051100  0.61896700  1
  C  C15  1  0.75000000  0.84065600  0.55257300  1
  C  C16  1  0.25000000  0.15934400  0.44742700  1
  C  C17  1  0.75000000  0.22948900  0.38103300  1
  C  C18  1  0.95609500  0.77521300  0.32780600  1
  C  C19  1  0.54390500  0.77521300  0.32780600  1
  C  C20  1  0.45009400  0.26327200  0.17142300  1
  C  C21  1  0.04990600  0.26327200  0.17142300  1
  C  C22  1  0.25000000  0.72963500  0.11589800  1
  C  C23  1  0.75000000  0.65196700  0.05298400  1
