# generated using pymatgen
data_CuNiC19
_symmetry_space_group_name_H-M   'P 1'
_cell_length_a   6.09230500
_cell_length_b   10.46045000
_cell_length_c   14.27796637
_cell_angle_alpha   89.88988648
_cell_angle_beta   90.00000000
_cell_angle_gamma   90.00000000
_symmetry_Int_Tables_number   1
_chemical_formula_structural   CuNiC19
_chemical_formula_sum   'Cu4 Ni4 C76'
_cell_volume   909.90815604
_cell_formula_units_Z   4
loop_
 _symmetry_equiv_pos_site_id
 _symmetry_equiv_pos_as_xyz
  1  'x, y, z'
loop_
 _atom_site_type_symbol
 _atom_site_label
 _atom_site_symmetry_multiplicity
 _atom_site_fract_x
 _atom_site_fract_y
 _atom_site_fract_z
 _atom_site_occupancy
  C  C0  1  0.75079300  0.99755700  0.66716300  1
  C  C1  1  0.24952500  0.99867700  0.99965100  1
  C  C2  1  0.75047500  0.99867700  0.99965100  1
  C  C3  1  0.24897600  0.99810700  0.33307400  1
  C  C4  1  0.75102400  0.99810700  0.33307400  1
  C  C5  1  0.24920700  0.99755700  0.66716300  1
  C  C6  1  0.24925400  0.50240500  0.50092800  1
  C  C7  1  0.75074600  0.50240500  0.50092800  1
  C  C8  1  0.24955000  0.50151900  0.16675600  1
  C  C9  1  0.75045000  0.50151900  0.16675600  1
  C  C10  1  0.25015600  0.50257700  0.83285300  1
  C  C11  1  0.74984400  0.50257700  0.83285300  1
  Ni  Ni12  1  0.50000000  0.21804300  0.16019200  1
  Ni  Ni13  1  0.50000000  0.21854600  0.49381000  1
  Ni  Ni14  1  0.50000000  0.21809100  0.82669000  1
  Ni  Ni15  1  0.00000000  0.28183400  0.66003700  1
  Cu  Cu16  1  0.00000000  0.28033900  0.99289400  1
  Cu  Cu17  1  0.00000000  0.28187400  0.32576100  1
  Cu  Cu18  1  0.50000000  0.71993400  0.00716500  1
  Cu  Cu19  1  0.50000000  0.72009400  0.34099200  1
  C  C20  1  0.50000000  0.72155300  0.67405400  1
  C  C21  1  0.00000000  0.77819800  0.83914100  1
  C  C22  1  0.00000000  0.78016500  0.50693700  1
  C  C23  1  0.00000000  0.77908000  0.17296600  1
  C  C24  1  0.00000000  0.09046500  0.80603400  1
  C  C25  1  0.00000000  0.09242300  0.13837400  1
  C  C26  1  0.00000000  0.09161000  0.47058500  1
  C  C27  1  0.50000000  0.40868900  0.30690900  1
  C  C28  1  0.50000000  0.41067400  0.63918600  1
  C  C29  1  0.50000000  0.40834900  0.97358200  1
  C  C30  1  0.00000000  0.59646200  0.36055000  1
  C  C31  1  0.00000000  0.59567500  0.02733500  1
  C  C32  1  0.00000000  0.59783800  0.69414800  1
  C  C33  1  0.50000000  0.90210500  0.86067900  1
  C  C34  1  0.50000000  0.90256900  0.19419700  1
  C  C35  1  0.50000000  0.90208000  0.52778300  1
  C  C36  1  0.50000000  0.04030400  0.23623600  1
  C  C37  1  0.50000000  0.03932200  0.56989000  1
  C  C38  1  0.50000000  0.03973200  0.90286400  1
  C  C39  1  0.00000000  0.09548600  0.57798000  1
  C  C40  1  0.00000000  0.09603700  0.91358700  1
  C  C41  1  0.00000000  0.09856700  0.24589100  1
  C  C42  1  0.20107000  0.16300500  0.09228800  1
  C  C43  1  0.79893000  0.16300500  0.09228800  1
  C  C44  1  0.20181800  0.16233100  0.42532300  1
  C  C45  1  0.79818200  0.16233100  0.42532300  1
  C  C46  1  0.20190000  0.16080500  0.76084700  1
  C  C47  1  0.79810000  0.16080500  0.76084700  1
  C  C48  1  0.70186500  0.34000100  0.59427900  1
  C  C49  1  0.29813500  0.34000100  0.59427900  1
  C  C50  1  0.70315500  0.33731100  0.26317500  1
  C  C51  1  0.29684500  0.33731100  0.26317500  1
  C  C52  1  0.70314600  0.33718000  0.92997400  1
  C  C53  1  0.29685400  0.33718000  0.92997400  1
  C  C54  1  0.50000000  0.40676800  0.41415800  1
  C  C55  1  0.50000000  0.40623500  0.08123800  1
  C  C56  1  0.50000000  0.40518500  0.74673700  1
  C  C57  1  0.00000000  0.45821000  0.40153700  1
  C  C58  1  0.00000000  0.45788300  0.06876400  1
  C  C59  1  0.00000000  0.46044900  0.73670900  1
  C  C60  1  0.50000000  0.54569500  0.26441400  1
  C  C61  1  0.50000000  0.54524400  0.93129800  1
  C  C62  1  0.50000000  0.54858000  0.59892700  1
  C  C63  1  0.00000000  0.59936500  0.25284200  1
  C  C64  1  0.00000000  0.59811800  0.91965600  1
  C  C65  1  0.00000000  0.59822500  0.58649300  1
  C  C66  1  0.20249700  0.66630300  0.07195600  1
  C  C67  1  0.20235000  0.66629700  0.40557100  1
  C  C68  1  0.20353300  0.66835000  0.73869900  1
  C  C69  1  0.79646700  0.66835000  0.73869900  1
  C  C70  1  0.79750300  0.66630300  0.07195600  1
  C  C71  1  0.79765000  0.66629700  0.40557100  1
  C  C72  1  0.70399100  0.83235100  0.90507500  1
  C  C73  1  0.29600900  0.83235100  0.90507500  1
  C  C74  1  0.70415400  0.83285500  0.23842400  1
  C  C75  1  0.70334700  0.83124500  0.57179800  1
  C  C76  1  0.29584600  0.83285500  0.23842400  1
  C  C77  1  0.29665300  0.83124500  0.57179800  1
  C  C78  1  0.50000000  0.90188800  0.75303700  1
  C  C79  1  0.50000000  0.90192200  0.41986700  1
  C  C80  1  0.50000000  0.90220900  0.08660500  1
  C  C81  1  0.00000000  0.95269400  0.76576400  1
  C  C82  1  0.00000000  0.95415800  0.09935600  1
  C  C83  1  0.00000000  0.95328200  0.43048400  1
