# generated using pymatgen
data_Cu2Ni2C11
_symmetry_space_group_name_H-M   'P 1'
_cell_length_a   10.63019100
_cell_length_b   5.13260500
_cell_length_c   6.59877055
_cell_angle_alpha   89.47166173
_cell_angle_beta   90.00000000
_cell_angle_gamma   90.00000000
_symmetry_Int_Tables_number   1
_chemical_formula_structural   Cu2Ni2C11
_chemical_formula_sum   'Cu4 Ni4 C22'
_cell_volume   360.01738529
_cell_formula_units_Z   2
loop_
 _symmetry_equiv_pos_site_id
 _symmetry_equiv_pos_as_xyz
  1  'x, y, z'
loop_
 _atom_site_type_symbol
 _atom_site_label
 _atom_site_symmetry_multiplicity
 _atom_site_fract_x
 _atom_site_fract_y
 _atom_site_fract_z
 _atom_site_occupancy
  C  C0  1  0.16035500  0.56366400  0.73786400  1
  C  C1  1  0.66035500  0.43633600  0.26213600  1
  C  C2  1  0.34420100  0.06612900  0.25010500  1
  C  C3  1  0.57398100  0.04391900  0.01921700  1
  C  C4  1  0.07398100  0.95608100  0.98078300  1
  C  C5  1  0.84420100  0.93387100  0.74989500  1
  Ni  Ni6  1  0.34134800  0.08193500  0.73349900  1
  Ni  Ni7  1  0.84134800  0.91806500  0.26650100  1
  Ni  Ni8  1  0.16375600  0.56047300  0.25053500  1
  Ni  Ni9  1  0.66375600  0.43952700  0.74946500  1
  Cu  Cu10  1  0.58828200  0.94085800  0.49639800  1
  Cu  Cu11  1  0.08828200  0.05914200  0.50360200  1
  Cu  Cu12  1  0.90635900  0.42999600  0.00990200  1
  Cu  Cu13  1  0.40635900  0.57000400  0.99009800  1
  C  C14  1  0.65766200  0.06846700  0.70535800  1
  C  C15  1  0.15685000  0.94980300  0.71026000  1
  C  C16  1  0.11411200  0.37751300  0.48276400  1
  C  C17  1  0.94006900  0.99343900  0.50903100  1
  C  C18  1  0.61411200  0.62248700  0.51723600  1
  C  C19  1  0.44006900  0.00656100  0.49096900  1
  C  C20  1  0.65685000  0.05019700  0.28974000  1
  C  C21  1  0.15766200  0.93153300  0.29464200  1
  C  C22  1  0.83179000  0.53879300  0.20587800  1
  C  C23  1  0.32988900  0.45182900  0.19128100  1
  C  C24  1  0.55552200  0.45578700  0.98936400  1
  C  C25  1  0.40902000  0.88947100  0.99926900  1
  C  C26  1  0.05552200  0.54421300  0.01063600  1
  C  C27  1  0.90902000  0.11052900  0.00073100  1
  C  C28  1  0.82988900  0.54817100  0.80871900  1
  C  C29  1  0.33179000  0.46120700  0.79412200  1
