# generated using pymatgen
data_Cu2NiC8
_symmetry_space_group_name_H-M   'P 1'
_cell_length_a   5.12164857
_cell_length_b   5.12164857
_cell_length_c   10.04562400
_cell_angle_alpha   90.00000000
_cell_angle_beta   90.00000000
_cell_angle_gamma   119.66101765
_symmetry_Int_Tables_number   1
_chemical_formula_structural   Cu2NiC8
_chemical_formula_sum   'Cu4 Ni2 C16'
_cell_volume   228.98153266
_cell_formula_units_Z   2
loop_
 _symmetry_equiv_pos_site_id
 _symmetry_equiv_pos_as_xyz
  1  'x, y, z'
loop_
 _atom_site_type_symbol
 _atom_site_label
 _atom_site_symmetry_multiplicity
 _atom_site_fract_x
 _atom_site_fract_y
 _atom_site_fract_z
 _atom_site_occupancy
  C  C0  1  0.15834400  0.65834400  0.75000000  1
  C  C1  1  0.34165600  0.84165600  0.25000000  1
  C  C2  1  0.65834400  0.15834400  0.75000000  1
  C  C3  1  0.84165600  0.34165600  0.25000000  1
  Ni  Ni4  1  0.00000000  0.00000000  0.00000000  1
  Ni  Ni5  1  0.50000000  0.50000000  0.50000000  1
  Cu  Cu6  1  0.33683700  0.66316300  0.00000000  1
  Cu  Cu7  1  0.83683700  0.16316300  0.50000000  1
  Cu  Cu8  1  0.16316300  0.83683700  0.50000000  1
  Cu  Cu9  1  0.66316300  0.33683700  0.00000000  1
  C  C10  1  0.17771700  0.17771700  0.59890400  1
  C  C11  1  0.32228300  0.32228300  0.09890400  1
  C  C12  1  0.67771700  0.67771700  0.90109600  1
  C  C13  1  0.98990600  0.32740600  0.89219100  1
  C  C14  1  0.82228300  0.82228300  0.40109600  1
  C  C15  1  0.17259400  0.51009400  0.39219100  1
  C  C16  1  0.48990600  0.82740600  0.60780900  1
  C  C17  1  0.67259400  0.01009400  0.10780900  1
  C  C18  1  0.01009400  0.67259400  0.10780900  1
  C  C19  1  0.32740600  0.98990600  0.89219100  1
  C  C20  1  0.51009400  0.17259400  0.39219100  1
  C  C21  1  0.82740600  0.48990600  0.60780900  1
