# generated using pymatgen
data_CuNi3C4
_symmetry_space_group_name_H-M   'P 1'
_cell_length_a   6.16837400
_cell_length_b   6.30297200
_cell_length_c   9.27046100
_cell_angle_alpha   90.00000000
_cell_angle_beta   90.00000000
_cell_angle_gamma   90.00000000
_symmetry_Int_Tables_number   1
_chemical_formula_structural   CuNi3C4
_chemical_formula_sum   'Cu4 Ni12 C16'
_cell_volume   360.42707465
_cell_formula_units_Z   4
loop_
 _symmetry_equiv_pos_site_id
 _symmetry_equiv_pos_as_xyz
  1  'x, y, z'
loop_
 _atom_site_type_symbol
 _atom_site_label
 _atom_site_symmetry_multiplicity
 _atom_site_fract_x
 _atom_site_fract_y
 _atom_site_fract_z
 _atom_site_occupancy
  Ni  Ni0  1  0.42035300  0.51511000  0.76438300  1
  Ni  Ni1  1  0.92035300  0.48489000  0.23561700  1
  Ni  Ni2  1  0.92035300  0.98489000  0.26438300  1
  Ni  Ni3  1  0.42035300  0.01511000  0.73561700  1
  Ni  Ni4  1  0.14071400  0.43189000  0.31170900  1
  Ni  Ni5  1  0.64071400  0.56811000  0.68829100  1
  Ni  Ni6  1  0.64071400  0.06811000  0.81170900  1
  Ni  Ni7  1  0.14071400  0.93189000  0.18829100  1
  Ni  Ni8  1  0.88226200  0.82374200  0.05848800  1
  Ni  Ni9  1  0.38226200  0.17625800  0.94151200  1
  Ni  Ni10  1  0.38226200  0.67625800  0.55848800  1
  Ni  Ni11  1  0.88226200  0.32374200  0.44151200  1
  Cu  Cu12  1  0.49116900  0.81874500  0.38852800  1
  Cu  Cu13  1  0.99116900  0.18125500  0.61147200  1
  Cu  Cu14  1  0.99116900  0.68125500  0.88852800  1
  Cu  Cu15  1  0.49116900  0.31874500  0.11147200  1
  C  C16  1  0.67327100  0.78841400  0.43969700  1
  C  C17  1  0.17327100  0.21158600  0.56030300  1
  C  C18  1  0.17327100  0.71158600  0.93969700  1
  C  C19  1  0.67327100  0.28841400  0.06030300  1
  C  C20  1  0.31597300  0.74662600  0.46466000  1
  C  C21  1  0.81597300  0.25337400  0.53534000  1
  C  C22  1  0.81597300  0.75337400  0.96466000  1
  C  C23  1  0.31597300  0.24662600  0.03534000  1
  C  C24  1  0.44974400  0.90836000  0.27391700  1
  C  C25  1  0.94974400  0.09164000  0.72608300  1
  C  C26  1  0.94974400  0.59164000  0.77391700  1
  C  C27  1  0.44974400  0.40836000  0.22608300  1
  C  C28  1  0.98721200  0.89299300  0.19292400  1
  C  C29  1  0.48721200  0.10700700  0.80707600  1
  C  C30  1  0.48721200  0.60700700  0.69292400  1
  C  C31  1  0.98721200  0.39299300  0.30707600  1
