# generated using pymatgen
data_Cu4NiC14
_symmetry_space_group_name_H-M   'P 1'
_cell_length_a   7.46696300
_cell_length_b   9.37137500
_cell_length_c   43.69849800
_cell_angle_alpha   90.00000000
_cell_angle_beta   90.00000000
_cell_angle_gamma   90.00000000
_symmetry_Int_Tables_number   1
_chemical_formula_structural   Cu4NiC14
_chemical_formula_sum   'Cu16 Ni4 C56'
_cell_volume   3057.83344027
_cell_formula_units_Z   4
loop_
 _symmetry_equiv_pos_site_id
 _symmetry_equiv_pos_as_xyz
  1  'x, y, z'
loop_
 _atom_site_type_symbol
 _atom_site_label
 _atom_site_symmetry_multiplicity
 _atom_site_fract_x
 _atom_site_fract_y
 _atom_site_fract_z
 _atom_site_occupancy
  Ni  Ni0  1  0.22638800  0.26809600  0.71660300  1
  Ni  Ni1  1  0.27361200  0.73190400  0.21660300  1
  Ni  Ni2  1  0.72638800  0.23190400  0.28339700  1
  Ni  Ni3  1  0.77361200  0.76809600  0.78339700  1
  Cu  Cu4  1  0.24506200  0.91500200  0.62113100  1
  Cu  Cu5  1  0.24440200  0.58111400  0.52360400  1
  Cu  Cu6  1  0.23572700  0.89347000  0.33030000  1
  Cu  Cu7  1  0.24440100  0.24565500  0.42582300  1
  Cu  Cu8  1  0.25559900  0.75434500  0.92582300  1
  Cu  Cu9  1  0.26427300  0.10653000  0.83030000  1
  Cu  Cu10  1  0.25559800  0.41888600  0.02360400  1
  Cu  Cu11  1  0.25493800  0.08499800  0.12113100  1
  Cu  Cu12  1  0.74506200  0.58499800  0.37886900  1
  Cu  Cu13  1  0.74440200  0.91888600  0.47639600  1
  Cu  Cu14  1  0.73572700  0.60653000  0.66970000  1
  Cu  Cu15  1  0.74440100  0.25434500  0.57417700  1
  Cu  Cu16  1  0.75559900  0.74565500  0.07417700  1
  Cu  Cu17  1  0.76427300  0.39347000  0.16970000  1
  Cu  Cu18  1  0.75559800  0.08111400  0.97639600  1
  Cu  Cu19  1  0.75493800  0.41500200  0.87886900  1
  C  C20  1  0.03840600  0.71918600  0.64860600  1
  C  C21  1  0.04569600  0.72073300  0.36489500  1
  C  C22  1  0.11907300  0.91360000  0.79311700  1
  C  C23  1  0.01709800  0.06944400  0.45363400  1
  C  C24  1  0.01916200  0.39933300  0.55066600  1
  C  C25  1  0.03491600  0.88917800  0.09681800  1
  C  C26  1  0.02802500  0.23544400  0.99785800  1
  C  C27  1  0.03092500  0.57359000  0.89725400  1
  C  C28  1  0.06957400  0.50410300  0.18756900  1
  C  C29  1  0.23188500  0.71064300  0.28422600  1
  C  C30  1  0.25605600  0.08055100  0.37700800  1
  C  C31  1  0.24512500  0.41783600  0.47413600  1
  C  C32  1  0.23878300  0.74516400  0.57265600  1
  C  C33  1  0.23939900  0.98002200  0.17653800  1
  C  C34  1  0.26060100  0.01997800  0.67653800  1
  C  C35  1  0.26121700  0.25483600  0.07265600  1
  C  C36  1  0.25487500  0.58216400  0.97413600  1
  C  C37  1  0.24394400  0.91944900  0.87700800  1
  C  C38  1  0.26811500  0.28935700  0.78422600  1
  C  C39  1  0.43042600  0.49589700  0.68756900  1
  C  C40  1  0.46907500  0.42641000  0.39725400  1
  C  C41  1  0.47197500  0.76455600  0.49785800  1
  C  C42  1  0.46508400  0.11082200  0.59681800  1
  C  C43  1  0.48083800  0.60066700  0.05066600  1
  C  C44  1  0.48290200  0.93055600  0.95363400  1
  C  C45  1  0.38092700  0.08640000  0.29311700  1
  C  C46  1  0.45430400  0.27926700  0.86489500  1
  C  C47  1  0.46159400  0.28081400  0.14860600  1
  C  C48  1  0.53840600  0.78081400  0.35139400  1
  C  C49  1  0.54569600  0.77926700  0.63510500  1
  C  C50  1  0.61907300  0.58640000  0.20688300  1
  C  C51  1  0.51709800  0.43055600  0.54636600  1
  C  C52  1  0.51916200  0.10066700  0.44933400  1
  C  C53  1  0.53491600  0.61082200  0.90318200  1
  C  C54  1  0.52802500  0.26455600  0.00214200  1
  C  C55  1  0.53092500  0.92641000  0.10274600  1
  C  C56  1  0.56957400  0.99589700  0.81243100  1
  C  C57  1  0.73188500  0.78935700  0.71577400  1
  C  C58  1  0.75605600  0.41944900  0.62299200  1
  C  C59  1  0.74512500  0.08216400  0.52586400  1
  C  C60  1  0.73878300  0.75483600  0.42734400  1
  C  C61  1  0.73939900  0.51997800  0.82346200  1
  C  C62  1  0.76060100  0.48002200  0.32346200  1
  C  C63  1  0.76121700  0.24516400  0.92734400  1
  C  C64  1  0.75487500  0.91783600  0.02586400  1
  C  C65  1  0.74394400  0.58055100  0.12299200  1
  C  C66  1  0.76811500  0.21064300  0.21577400  1
  C  C67  1  0.93042600  0.00410300  0.31243100  1
  C  C68  1  0.96907500  0.07359000  0.60274600  1
  C  C69  1  0.97197500  0.73544400  0.50214200  1
  C  C70  1  0.96508400  0.38917800  0.40318200  1
  C  C71  1  0.98083800  0.89933300  0.94933400  1
  C  C72  1  0.98290200  0.56944400  0.04636600  1
  C  C73  1  0.88092700  0.41360000  0.70688300  1
  C  C74  1  0.95430400  0.22073300  0.13510500  1
  C  C75  1  0.96159400  0.21918600  0.85139400  1
