# generated using pymatgen
data_Cu(NiC12)2
_symmetry_space_group_name_H-M   'P 1'
_cell_length_a   10.64945614
_cell_length_b   10.53700979
_cell_length_c   10.22585260
_cell_angle_alpha   61.69402151
_cell_angle_beta   60.59039995
_cell_angle_gamma   57.71557854
_symmetry_Int_Tables_number   1
_chemical_formula_structural   Cu(NiC12)2
_chemical_formula_sum   'Cu2 Ni4 C48'
_cell_volume   809.33656598
_cell_formula_units_Z   2
loop_
 _symmetry_equiv_pos_site_id
 _symmetry_equiv_pos_as_xyz
  1  'x, y, z'
loop_
 _atom_site_type_symbol
 _atom_site_label
 _atom_site_symmetry_multiplicity
 _atom_site_fract_x
 _atom_site_fract_y
 _atom_site_fract_z
 _atom_site_occupancy
  C  C0  1  0.95160800  0.54839200  0.95160800  1
  C  C1  1  0.95271800  0.54728200  0.54728200  1
  C  C2  1  0.70271800  0.29728200  0.29728200  1
  C  C3  1  0.70160800  0.29839200  0.70160800  1
  C  C4  1  0.54839200  0.95160800  0.54839200  1
  C  C5  1  0.54728200  0.95271800  0.95271800  1
  C  C6  1  0.29728200  0.70271800  0.70271800  1
  C  C7  1  0.29839200  0.70160800  0.29839200  1
  Ni  Ni8  1  0.12500000  0.62500000  0.12500000  1
  Ni  Ni9  1  0.62500000  0.12500000  0.12500000  1
  Ni  Ni10  1  0.12500000  0.12500000  0.12500000  1
  Ni  Ni11  1  0.12500000  0.12500000  0.62500000  1
  Cu  Cu12  1  0.50000000  0.50000000  0.50000000  1
  Cu  Cu13  1  0.75000000  0.75000000  0.75000000  1
  C  C14  1  0.89286600  0.28661800  0.91328200  1
  C  C15  1  0.96338200  0.35713400  0.34276500  1
  C  C16  1  0.91328200  0.90723500  0.89286600  1
  C  C17  1  0.90723500  0.91328200  0.28661800  1
  C  C18  1  0.34276500  0.33671800  0.96338200  1
  C  C19  1  0.33671800  0.34276500  0.35713400  1
  C  C20  1  0.28661800  0.89286600  0.90723500  1
  C  C21  1  0.35713400  0.96338200  0.33671800  1
  C  C22  1  0.00551700  0.29455700  0.92305400  1
  C  C23  1  0.55458900  0.55678100  0.31823900  1
  C  C24  1  0.77273300  0.27405100  0.03547600  1
  C  C25  1  0.97594900  0.47726700  0.33226000  1
  C  C26  1  0.03547600  0.91774000  0.77273300  1
  C  C27  1  0.95808300  0.34807300  0.22226900  1
  C  C28  1  0.31823900  0.57039100  0.55458900  1
  C  C29  1  0.55678100  0.55458900  0.57039100  1
  C  C30  1  0.47157500  0.22226900  0.34807300  1
  C  C31  1  0.91774000  0.03547600  0.27405100  1
  C  C32  1  0.95544300  0.24448300  0.47312800  1
  C  C33  1  0.57039100  0.31823900  0.55678100  1
  C  C34  1  0.92305400  0.77687200  0.00551700  1
  C  C35  1  0.77687200  0.92305400  0.29455700  1
  C  C36  1  0.90192700  0.29191700  0.77842500  1
  C  C37  1  0.22226900  0.47157500  0.95808300  1
  C  C38  1  0.02773100  0.77842500  0.29191700  1
  C  C39  1  0.34807300  0.95808300  0.47157500  1
  C  C40  1  0.47312800  0.32694600  0.95544300  1
  C  C41  1  0.32694600  0.47312800  0.24448300  1
  C  C42  1  0.67960900  0.93176100  0.69321900  1
  C  C43  1  0.29455700  0.00551700  0.77687200  1
  C  C44  1  0.33226000  0.21452400  0.97594900  1
  C  C45  1  0.77842500  0.02773100  0.90192700  1
  C  C46  1  0.69321900  0.69541100  0.67960900  1
  C  C47  1  0.93176100  0.67960900  0.69541100  1
  C  C48  1  0.29191700  0.90192700  0.02773100  1
  C  C49  1  0.21452400  0.33226000  0.47726700  1
  C  C50  1  0.27405100  0.77273300  0.91774000  1
  C  C51  1  0.47726700  0.97594900  0.21452400  1
  C  C52  1  0.69541100  0.69321900  0.93176100  1
  C  C53  1  0.24448300  0.95544300  0.32694600  1
