# generated using pymatgen
data_CuNi2C5
_symmetry_space_group_name_H-M   'P 1'
_cell_length_a   4.42658800
_cell_length_b   8.98893500
_cell_length_c   18.21258600
_cell_angle_alpha   90.00000000
_cell_angle_beta   90.00000000
_cell_angle_gamma   90.00000000
_symmetry_Int_Tables_number   1
_chemical_formula_structural   CuNi2C5
_chemical_formula_sum   'Cu4 Ni8 C20'
_cell_volume   724.68447569
_cell_formula_units_Z   4
loop_
 _symmetry_equiv_pos_site_id
 _symmetry_equiv_pos_as_xyz
  1  'x, y, z'
loop_
 _atom_site_type_symbol
 _atom_site_label
 _atom_site_symmetry_multiplicity
 _atom_site_fract_x
 _atom_site_fract_y
 _atom_site_fract_z
 _atom_site_occupancy
  C  C0  1  0.75000000  0.26322600  0.51436600  1
  C  C1  1  0.75000000  0.76322600  0.98563400  1
  C  C2  1  0.25000000  0.73677400  0.48563400  1
  C  C3  1  0.25000000  0.23677400  0.01436600  1
  C  C4  1  0.25000000  0.51627200  0.75110800  1
  C  C5  1  0.25000000  0.01627200  0.74889200  1
  C  C6  1  0.75000000  0.48372800  0.24889200  1
  C  C7  1  0.75000000  0.98372800  0.25110800  1
  C  C8  1  0.25000000  0.55184300  0.86187400  1
  C  C9  1  0.25000000  0.05184300  0.63812600  1
  C  C10  1  0.75000000  0.44815700  0.13812600  1
  C  C11  1  0.75000000  0.94815700  0.36187400  1
  C  C12  1  0.25000000  0.48280100  0.63992200  1
  C  C13  1  0.25000000  0.98280100  0.86007800  1
  C  C14  1  0.75000000  0.51719900  0.36007800  1
  C  C15  1  0.75000000  0.01719900  0.13992200  1
  Ni  Ni16  1  0.25000000  0.57669200  0.92480200  1
  Ni  Ni17  1  0.25000000  0.07669200  0.57519800  1
  Ni  Ni18  1  0.75000000  0.42330800  0.07519800  1
  Ni  Ni19  1  0.75000000  0.92330800  0.42480200  1
  Ni  Ni20  1  0.25000000  0.46165600  0.57665100  1
  Ni  Ni21  1  0.25000000  0.96165600  0.92334900  1
  Ni  Ni22  1  0.75000000  0.53834400  0.42334900  1
  Ni  Ni23  1  0.75000000  0.03834400  0.07665100  1
  C  C24  1  0.75000000  0.26559100  0.77872300  1
  C  C25  1  0.75000000  0.76559100  0.72127700  1
  C  C26  1  0.25000000  0.73440900  0.22127700  1
  C  C27  1  0.25000000  0.23440900  0.27872300  1
  Cu  Cu28  1  0.25000000  0.23508000  0.41249100  1
  Cu  Cu29  1  0.25000000  0.73508000  0.08750900  1
  Cu  Cu30  1  0.75000000  0.76492000  0.58750900  1
  Cu  Cu31  1  0.75000000  0.26492000  0.91249100  1
