# generated using pymatgen
data_Cu8Ni5C13
_symmetry_space_group_name_H-M   'P 1'
_cell_length_a   7.21114654
_cell_length_b   7.21114654
_cell_length_c   11.17699400
_cell_angle_alpha   90.00000000
_cell_angle_beta   90.00000000
_cell_angle_gamma   101.88431165
_symmetry_Int_Tables_number   1
_chemical_formula_structural   Cu8Ni5C13
_chemical_formula_sum   'Cu16 Ni10 C26'
_cell_volume   568.75276439
_cell_formula_units_Z   2
loop_
 _symmetry_equiv_pos_site_id
 _symmetry_equiv_pos_as_xyz
  1  'x, y, z'
loop_
 _atom_site_type_symbol
 _atom_site_label
 _atom_site_symmetry_multiplicity
 _atom_site_fract_x
 _atom_site_fract_y
 _atom_site_fract_z
 _atom_site_occupancy
  C  C0  1  0.49277100  0.49277100  0.50000000  1
  C  C1  1  0.99277100  0.99277100  0.00000000  1
  Ni  Ni2  1  0.89481400  0.89481400  0.50000000  1
  Ni  Ni3  1  0.39481400  0.39481400  0.00000000  1
  Ni  Ni4  1  0.89567100  0.70462600  0.68825100  1
  Ni  Ni5  1  0.70462600  0.89567100  0.31174900  1
  Ni  Ni6  1  0.39567100  0.20462600  0.81174900  1
  Ni  Ni7  1  0.20462600  0.39567100  0.18825100  1
  Ni  Ni8  1  0.93031800  0.04112900  0.70471400  1
  Ni  Ni9  1  0.04112900  0.93031800  0.29528600  1
  Ni  Ni10  1  0.43031800  0.54112900  0.79528600  1
  Ni  Ni11  1  0.54112900  0.43031800  0.20471400  1
  Cu  Cu12  1  0.52743800  0.00878500  0.48900700  1
  Cu  Cu13  1  0.00878500  0.52743800  0.51099300  1
  Cu  Cu14  1  0.02743800  0.50878500  0.01099300  1
  Cu  Cu15  1  0.50878500  0.02743800  0.98900700  1
  Cu  Cu16  1  0.30809300  0.01337500  0.48002100  1
  Cu  Cu17  1  0.01337500  0.30809300  0.51997900  1
  Cu  Cu18  1  0.80809300  0.51337500  0.01997900  1
  Cu  Cu19  1  0.51337500  0.80809300  0.98002100  1
  Cu  Cu20  1  0.39801000  0.04958800  0.66609300  1
  Cu  Cu21  1  0.04958800  0.39801000  0.33390700  1
  Cu  Cu22  1  0.89801000  0.54958800  0.83390700  1
  Cu  Cu23  1  0.54958800  0.89801000  0.16609300  1
  Cu  Cu24  1  0.93918800  0.31417200  0.74626800  1
  Cu  Cu25  1  0.31417200  0.93918800  0.25373200  1
  Cu  Cu26  1  0.43918800  0.81417200  0.75373200  1
  Cu  Cu27  1  0.81417200  0.43918800  0.24626800  1
  C  C28  1  0.88461000  0.71268100  0.56600700  1
  C  C29  1  0.71268100  0.88461000  0.43399300  1
  C  C30  1  0.38461000  0.21268100  0.93399300  1
  C  C31  1  0.21268100  0.38461000  0.06600700  1
  C  C32  1  0.92242600  0.05815800  0.58284400  1
  C  C33  1  0.05815800  0.92242600  0.41715600  1
  C  C34  1  0.42242600  0.55815800  0.91715600  1
  C  C35  1  0.55815800  0.42242600  0.08284400  1
  C  C36  1  0.91810900  0.86595700  0.75944000  1
  C  C37  1  0.86595700  0.91810900  0.24056000  1
  C  C38  1  0.41810900  0.36595700  0.74056000  1
  C  C39  1  0.36595700  0.41810900  0.25944000  1
  C  C40  1  0.88633400  0.53367600  0.74409100  1
  C  C41  1  0.53367600  0.88633400  0.25590900  1
  C  C42  1  0.38633400  0.03367600  0.75590900  1
  C  C43  1  0.03367600  0.38633400  0.24409100  1
  C  C44  1  0.95367600  0.19169300  0.78138900  1
  C  C45  1  0.19169300  0.95367600  0.21861100  1
  C  C46  1  0.45367600  0.69169300  0.71861100  1
  C  C47  1  0.69169300  0.45367600  0.28138900  1
  C  C48  1  0.42791300  0.07179000  0.52024000  1
  C  C49  1  0.07179000  0.42791300  0.47976000  1
  C  C50  1  0.92791300  0.57179000  0.97976000  1
  C  C51  1  0.57179000  0.92791300  0.02024000  1
