# generated using pymatgen
data_Cu2(NiC3)3
_symmetry_space_group_name_H-M   'P 1'
_cell_length_a   6.00355077
_cell_length_b   6.00355077
_cell_length_c   6.00355113
_cell_angle_alpha   59.93276310
_cell_angle_beta   59.93276310
_cell_angle_gamma   59.93275856
_symmetry_Int_Tables_number   1
_chemical_formula_structural   Cu2(NiC3)3
_chemical_formula_sum   'Cu2 Ni3 C9'
_cell_volume   152.77304659
_cell_formula_units_Z   1
loop_
 _symmetry_equiv_pos_site_id
 _symmetry_equiv_pos_as_xyz
  1  'x, y, z'
loop_
 _atom_site_type_symbol
 _atom_site_label
 _atom_site_symmetry_multiplicity
 _atom_site_fract_x
 _atom_site_fract_y
 _atom_site_fract_z
 _atom_site_occupancy
  C  C0  1  0.75023700  0.75023700  0.75023700  1
  Ni  Ni1  1  0.86583500  0.37804600  0.37804600  1
  Ni  Ni2  1  0.37804600  0.86583500  0.37804600  1
  Ni  Ni3  1  0.37804600  0.37804600  0.86583500  1
  Cu  Cu4  1  0.99995100  0.99995100  0.99995100  1
  Cu  Cu5  1  0.37948800  0.37948800  0.37948800  1
  C  C6  1  0.61423500  0.15983700  0.61423500  1
  C  C7  1  0.61423500  0.61423500  0.15983700  1
  C  C8  1  0.15983700  0.61423500  0.61423500  1
  C  C9  1  0.61206500  0.61206500  0.61206500  1
  C  C10  1  0.13303600  0.13303600  0.13303600  1
  C  C11  1  0.60346300  0.13076800  0.13076800  1
  C  C12  1  0.13076800  0.60346300  0.13076800  1
  C  C13  1  0.13076800  0.13076800  0.60346300  1
