# generated using pymatgen
data_Cu12Ni3C16
_symmetry_space_group_name_H-M   'P 1'
_cell_length_a   11.61737900
_cell_length_b   8.92140700
_cell_length_c   12.79236964
_cell_angle_alpha   85.35565476
_cell_angle_beta   90.00000000
_cell_angle_gamma   90.00000000
_symmetry_Int_Tables_number   1
_chemical_formula_structural   Cu12Ni3C16
_chemical_formula_sum   'Cu48 Ni12 C64'
_cell_volume   1321.49085421
_cell_formula_units_Z   4
loop_
 _symmetry_equiv_pos_site_id
 _symmetry_equiv_pos_as_xyz
  1  'x, y, z'
loop_
 _atom_site_type_symbol
 _atom_site_label
 _atom_site_symmetry_multiplicity
 _atom_site_fract_x
 _atom_site_fract_y
 _atom_site_fract_z
 _atom_site_occupancy
  C  C0  1  0.09842500  0.68683700  0.30002800  1
  C  C1  1  0.59842500  0.31316300  0.19997200  1
  C  C2  1  0.90157500  0.31316300  0.69997200  1
  C  C3  1  0.40157500  0.68683700  0.80002800  1
  Ni  Ni4  1  0.90551200  0.41440600  0.17844500  1
  Ni  Ni5  1  0.40551200  0.58559400  0.32155500  1
  Ni  Ni6  1  0.09448800  0.58559400  0.82155500  1
  Ni  Ni7  1  0.59448800  0.41440600  0.67844500  1
  Ni  Ni8  1  0.78331000  0.46273600  0.97444700  1
  Ni  Ni9  1  0.28331000  0.53726400  0.52555300  1
  Ni  Ni10  1  0.21669000  0.53726400  0.02555300  1
  Ni  Ni11  1  0.71669000  0.46273600  0.47444700  1
  Ni  Ni12  1  0.14409600  0.32827700  0.22382000  1
  Ni  Ni13  1  0.64409600  0.67172300  0.27618000  1
  Ni  Ni14  1  0.85590400  0.67172300  0.77618000  1
  Ni  Ni15  1  0.35590400  0.32827700  0.72382000  1
  Cu  Cu16  1  0.13437900  0.94695500  0.44605200  1
  Cu  Cu17  1  0.63437900  0.05304500  0.05394800  1
  Cu  Cu18  1  0.86562100  0.05304500  0.55394800  1
  Cu  Cu19  1  0.36562100  0.94695500  0.94605200  1
  Cu  Cu20  1  0.16424400  0.03457600  0.33148100  1
  Cu  Cu21  1  0.66424400  0.96542400  0.16851900  1
  Cu  Cu22  1  0.83575600  0.96542400  0.66851900  1
  Cu  Cu23  1  0.33575600  0.03457600  0.83148100  1
  Cu  Cu24  1  0.20734800  0.38315100  0.41478800  1
  Cu  Cu25  1  0.70734800  0.61684900  0.08521200  1
  Cu  Cu26  1  0.79265200  0.61684900  0.58521200  1
  Cu  Cu27  1  0.29265200  0.38315100  0.91478800  1
  Cu  Cu28  1  0.13720900  0.76787700  0.04498000  1
  Cu  Cu29  1  0.63720900  0.23212300  0.45502000  1
  Cu  Cu30  1  0.86279100  0.23212300  0.95502000  1
  Cu  Cu31  1  0.36279100  0.76787700  0.54498000  1
  Cu  Cu32  1  0.88048900  0.68495500  0.45991600  1
  Cu  Cu33  1  0.38048900  0.31504500  0.04008400  1
  Cu  Cu34  1  0.11951100  0.31504500  0.54008400  1
  Cu  Cu35  1  0.61951100  0.68495500  0.95991600  1
  Cu  Cu36  1  0.00711100  0.71154200  0.50430400  1
  Cu  Cu37  1  0.50711100  0.28845800  0.99569600  1
  Cu  Cu38  1  0.99288900  0.28845800  0.49569600  1
  Cu  Cu39  1  0.49288900  0.71154200  0.00430400  1
  Cu  Cu40  1  0.86361100  0.83161700  0.24200800  1
  Cu  Cu41  1  0.36361100  0.16838300  0.25799200  1
  Cu  Cu42  1  0.13638900  0.16838300  0.75799200  1
  Cu  Cu43  1  0.63638900  0.83161700  0.74200800  1
  Cu  Cu44  1  0.93610300  0.92824400  0.15905500  1
  Cu  Cu45  1  0.43610300  0.07175600  0.34094500  1
  Cu  Cu46  1  0.06389700  0.07175600  0.84094500  1
  Cu  Cu47  1  0.56389700  0.92824400  0.65905500  1
  Cu  Cu48  1  0.31266100  0.91754300  0.41174200  1
  Cu  Cu49  1  0.81266100  0.08245700  0.08825800  1
  Cu  Cu50  1  0.68733900  0.08245700  0.58825800  1
  Cu  Cu51  1  0.18733900  0.91754300  0.91174200  1
  Cu  Cu52  1  0.43950100  0.85651100  0.40369500  1
  Cu  Cu53  1  0.93950100  0.14348900  0.09630500  1
  Cu  Cu54  1  0.56049900  0.14348900  0.59630500  1
  Cu  Cu55  1  0.06049900  0.85651100  0.90369500  1
  Cu  Cu56  1  0.91468600  0.00814900  0.36980500  1
  Cu  Cu57  1  0.41468600  0.99185100  0.13019500  1
  Cu  Cu58  1  0.08531400  0.99185100  0.63019500  1
  Cu  Cu59  1  0.58531400  0.00814900  0.86980500  1
  Cu  Cu60  1  0.14873000  0.83842800  0.62363100  1
  Cu  Cu61  1  0.64873000  0.16157200  0.87636900  1
  Cu  Cu62  1  0.85127000  0.16157200  0.37636900  1
  Cu  Cu63  1  0.35127000  0.83842800  0.12363100  1
  C  C64  1  0.93618600  0.55112100  0.23320300  1
  C  C65  1  0.43618600  0.44887900  0.26679700  1
  C  C66  1  0.06381400  0.44887900  0.76679700  1
  C  C67  1  0.56381400  0.55112100  0.73320300  1
  C  C68  1  0.80630800  0.31765100  0.21951100  1
  C  C69  1  0.30630800  0.68234900  0.28048900  1
  C  C70  1  0.19369200  0.68234900  0.78048900  1
  C  C71  1  0.69369200  0.31765100  0.71951100  1
  C  C72  1  0.89566100  0.45383600  0.05547700  1
  C  C73  1  0.39566100  0.54616400  0.44452300  1
  C  C74  1  0.10433900  0.54616400  0.94452300  1
  C  C75  1  0.60433900  0.45383600  0.55547700  1
  C  C76  1  0.84733700  0.32155400  0.90576000  1
  C  C77  1  0.34733700  0.67844600  0.59424000  1
  C  C78  1  0.15266300  0.67844600  0.09424000  1
  C  C79  1  0.65266300  0.32155400  0.40576000  1
  C  C80  1  0.68111300  0.36879200  0.01793500  1
  C  C81  1  0.18111300  0.63120800  0.48206500  1
  C  C82  1  0.31888700  0.63120800  0.98206500  1
  C  C83  1  0.81888700  0.36879200  0.51793500  1
  C  C84  1  0.79446700  0.55888000  0.85817900  1
  C  C85  1  0.29446700  0.44112000  0.64182100  1
  C  C86  1  0.20553300  0.44112000  0.14182100  1
  C  C87  1  0.70553300  0.55888000  0.35817900  1
  C  C88  1  0.20357800  0.17954800  0.24095000  1
  C  C89  1  0.70357800  0.82045200  0.25905000  1
  C  C90  1  0.79642200  0.82045200  0.75905000  1
  C  C91  1  0.29642200  0.17954800  0.74095000  1
  C  C92  1  0.12780500  0.41788500  0.31920400  1
  C  C93  1  0.62780500  0.58211500  0.18079600  1
  C  C94  1  0.87219500  0.58211500  0.68079600  1
  C  C95  1  0.37219500  0.41788500  0.81920400  1
  C  C96  1  0.01629200  0.29941600  0.17781700  1
  C  C97  1  0.51629200  0.70058400  0.32218300  1
  C  C98  1  0.98370800  0.70058400  0.82218300  1
  C  C99  1  0.48370800  0.29941600  0.67781700  1
  C  C100  1  0.16230100  0.93484700  0.37328000  1
  C  C101  1  0.66230100  0.06515300  0.12672000  1
  C  C102  1  0.83769900  0.06515300  0.62672000  1
  C  C103  1  0.33769900  0.93484700  0.87328000  1
  C  C104  1  0.25758100  0.36873100  0.98668000  1
  C  C105  1  0.75758100  0.63126900  0.51332000  1
  C  C106  1  0.74241900  0.63126900  0.01332000  1
  C  C107  1  0.24241900  0.36873100  0.48668000  1
  C  C108  1  0.96183300  0.71677600  0.43956300  1
  C  C109  1  0.46183300  0.28322400  0.06043700  1
  C  C110  1  0.03816700  0.28322400  0.56043700  1
  C  C111  1  0.53816700  0.71677600  0.93956300  1
  C  C112  1  0.94265400  0.87171200  0.22917400  1
  C  C113  1  0.44265400  0.12828800  0.27082600  1
  C  C114  1  0.05734600  0.12828800  0.77082600  1
  C  C115  1  0.55734600  0.87171200  0.72917400  1
  C  C116  1  0.39164600  0.92472800  0.44150100  1
  C  C117  1  0.89164600  0.07527200  0.05849900  1
  C  C118  1  0.60835400  0.07527200  0.55849900  1
  C  C119  1  0.10835400  0.92472800  0.94150100  1
  C  C120  1  0.89877300  0.08714000  0.41668400  1
  C  C121  1  0.39877300  0.91286000  0.08331600  1
  C  C122  1  0.10122700  0.91286000  0.58331600  1
  C  C123  1  0.60122700  0.08714000  0.91668400  1
