# generated using pymatgen
data_Cu3Ni2C13
_symmetry_space_group_name_H-M   'P 1'
_cell_length_a   8.75974000
_cell_length_b   8.87811000
_cell_length_c   12.32149800
_cell_angle_alpha   90.00000000
_cell_angle_beta   90.00000000
_cell_angle_gamma   90.00000000
_symmetry_Int_Tables_number   1
_chemical_formula_structural   Cu3Ni2C13
_chemical_formula_sum   'Cu12 Ni8 C52'
_cell_volume   958.24210215
_cell_formula_units_Z   4
loop_
 _symmetry_equiv_pos_site_id
 _symmetry_equiv_pos_as_xyz
  1  'x, y, z'
loop_
 _atom_site_type_symbol
 _atom_site_label
 _atom_site_symmetry_multiplicity
 _atom_site_fract_x
 _atom_site_fract_y
 _atom_site_fract_z
 _atom_site_occupancy
  C  C0  1  0.96550100  0.78036500  0.07325000  1
  C  C1  1  0.53449900  0.28036500  0.07325000  1
  C  C2  1  0.03449900  0.28036500  0.92675000  1
  C  C3  1  0.46550100  0.78036500  0.92675000  1
  Ni  Ni4  1  0.00079600  0.53920200  0.62684000  1
  Ni  Ni5  1  0.49920400  0.03920200  0.62684000  1
  Ni  Ni6  1  0.50079600  0.53920200  0.37316000  1
  Ni  Ni7  1  0.99920400  0.03920200  0.37316000  1
  Ni  Ni8  1  0.00238100  0.45875800  0.13990700  1
  Ni  Ni9  1  0.49761900  0.95875800  0.13990700  1
  Ni  Ni10  1  0.99761900  0.95875800  0.86009300  1
  Ni  Ni11  1  0.50238100  0.45875800  0.86009300  1
  Cu  Cu12  1  0.79208000  0.25146300  0.74889200  1
  Cu  Cu13  1  0.70792000  0.75146300  0.74889200  1
  Cu  Cu14  1  0.35182600  0.39233100  0.60086600  1
  Cu  Cu15  1  0.85182600  0.39233100  0.39913400  1
  Cu  Cu16  1  0.64817400  0.89233100  0.39913400  1
  Cu  Cu17  1  0.20792000  0.75146300  0.25110800  1
  Cu  Cu18  1  0.29208000  0.25146300  0.25110800  1
  Cu  Cu19  1  0.85514300  0.10507900  0.10213800  1
  Cu  Cu20  1  0.64485700  0.60507900  0.10213800  1
  Cu  Cu21  1  0.14485700  0.60507900  0.89786200  1
  Cu  Cu22  1  0.35514300  0.10507900  0.89786200  1
  Cu  Cu23  1  0.14817400  0.89233100  0.60086600  1
  C  C24  1  0.39854400  0.43045000  0.71912100  1
  C  C25  1  0.10145600  0.93045000  0.71912100  1
  C  C26  1  0.60649400  0.84763100  0.67720900  1
  C  C27  1  0.89350600  0.34763100  0.67720900  1
  C  C28  1  0.80465500  0.64608000  0.68028900  1
  C  C29  1  0.69534500  0.14608000  0.68028900  1
  C  C30  1  0.17668600  0.39706700  0.59282700  1
  C  C31  1  0.32331400  0.89706700  0.59282700  1
  C  C32  1  0.09731300  0.73175400  0.57072900  1
  C  C33  1  0.40268700  0.23175300  0.57072900  1
  C  C34  1  0.07563000  0.01224600  0.52728000  1
  C  C35  1  0.42437000  0.51224600  0.52728000  1
  C  C36  1  0.57563000  0.01224600  0.47272000  1
  C  C37  1  0.92437000  0.51224600  0.47272000  1
  C  C38  1  0.59731300  0.73175400  0.42927100  1
  C  C39  1  0.90268700  0.23175300  0.42927100  1
  C  C40  1  0.82331400  0.89706700  0.40717300  1
  C  C41  1  0.67668600  0.39706700  0.40717300  1
  C  C42  1  0.30465500  0.64608000  0.31971100  1
  C  C43  1  0.19534500  0.14608000  0.31971100  1
  C  C44  1  0.39350600  0.34763100  0.32279100  1
  C  C45  1  0.10649400  0.84763100  0.32279100  1
  C  C46  1  0.89854400  0.43045000  0.28087900  1
  C  C47  1  0.60145600  0.93045000  0.28087900  1
  C  C48  1  0.90532100  0.06763000  0.21618300  1
  C  C49  1  0.59467900  0.56763000  0.21618300  1
  C  C50  1  0.09867700  0.66438700  0.17104000  1
  C  C51  1  0.40132300  0.16438700  0.17104000  1
  C  C52  1  0.19684300  0.34763000  0.17054200  1
  C  C53  1  0.30315700  0.84763000  0.17054200  1
  C  C54  1  0.82266900  0.60464600  0.09001000  1
  C  C55  1  0.67733100  0.10464600  0.09001000  1
  C  C56  1  0.91023200  0.26450300  0.06444900  1
  C  C57  1  0.58976800  0.76450300  0.06444900  1
  C  C58  1  0.92313900  0.98357700  0.02375100  1
  C  C59  1  0.57686100  0.48357700  0.02375100  1
  C  C60  1  0.07686100  0.48357700  0.97624900  1
  C  C61  1  0.42313900  0.98357700  0.97624900  1
  C  C62  1  0.08976800  0.76450300  0.93555100  1
  C  C63  1  0.41023200  0.26450300  0.93555100  1
  C  C64  1  0.17733100  0.10464600  0.90999000  1
  C  C65  1  0.32266900  0.60464600  0.90999000  1
  C  C66  1  0.80315700  0.84763000  0.82945800  1
  C  C67  1  0.69684300  0.34763000  0.82945800  1
  C  C68  1  0.90132300  0.16438700  0.82896000  1
  C  C69  1  0.59867700  0.66438700  0.82896000  1
  C  C70  1  0.09467900  0.56763000  0.78381700  1
  C  C71  1  0.40532100  0.06763000  0.78381700  1
