# generated using pymatgen
data_CuNiC5
_symmetry_space_group_name_H-M   'P 1'
_cell_length_a   5.77471200
_cell_length_b   7.25002700
_cell_length_c   12.47965700
_cell_angle_alpha   90.00000000
_cell_angle_beta   90.00000000
_cell_angle_gamma   90.00000000
_symmetry_Int_Tables_number   1
_chemical_formula_structural   CuNiC5
_chemical_formula_sum   'Cu4 Ni4 C20'
_cell_volume   522.48352729
_cell_formula_units_Z   4
loop_
 _symmetry_equiv_pos_site_id
 _symmetry_equiv_pos_as_xyz
  1  'x, y, z'
loop_
 _atom_site_type_symbol
 _atom_site_label
 _atom_site_symmetry_multiplicity
 _atom_site_fract_x
 _atom_site_fract_y
 _atom_site_fract_z
 _atom_site_occupancy
  Ni  Ni0  1  0.25000000  0.53117700  0.15428300  1
  Ni  Ni1  1  0.75000000  0.03117700  0.34571700  1
  Ni  Ni2  1  0.25000000  0.96882300  0.65428300  1
  Ni  Ni3  1  0.75000000  0.46882300  0.84571700  1
  Cu  Cu4  1  0.75000000  0.84995000  0.05650000  1
  Cu  Cu5  1  0.25000000  0.34995000  0.44350000  1
  Cu  Cu6  1  0.75000000  0.65005000  0.55650000  1
  Cu  Cu7  1  0.25000000  0.15005000  0.94350000  1
  C  C8  1  0.00000000  0.00000000  0.00000000  1
  C  C9  1  0.50000000  0.00000000  0.00000000  1
  C  C10  1  0.25000000  0.31276800  0.07455400  1
  C  C11  1  0.99107600  0.66812600  0.12025200  1
  C  C12  1  0.50892400  0.66812600  0.12025200  1
  C  C13  1  0.75000000  0.97776300  0.19816100  1
  C  C14  1  0.25000000  0.47776300  0.30183900  1
  C  C15  1  0.00892400  0.16812600  0.37974800  1
  C  C16  1  0.49107600  0.16812600  0.37974800  1
  C  C17  1  0.75000000  0.81276800  0.42544600  1
  C  C18  1  0.00000000  0.50000000  0.50000000  1
  C  C19  1  0.50000000  0.50000000  0.50000000  1
  C  C20  1  0.25000000  0.18723200  0.57455400  1
  C  C21  1  0.99107600  0.83187400  0.62025200  1
  C  C22  1  0.50892400  0.83187400  0.62025200  1
  C  C23  1  0.75000000  0.52223700  0.69816100  1
  C  C24  1  0.25000000  0.02223700  0.80183900  1
  C  C25  1  0.49107600  0.33187400  0.87974800  1
  C  C26  1  0.00892400  0.33187400  0.87974800  1
  C  C27  1  0.75000000  0.68723200  0.92544600  1
