# generated using pymatgen
data_Cu11NiC13
_symmetry_space_group_name_H-M   'P 1'
_cell_length_a   9.87877000
_cell_length_b   9.94554300
_cell_length_c   12.88579008
_cell_angle_alpha   50.27670635
_cell_angle_beta   90.00000000
_cell_angle_gamma   90.00000000
_symmetry_Int_Tables_number   1
_chemical_formula_structural   Cu11NiC13
_chemical_formula_sum   'Cu44 Ni4 C52'
_cell_volume   973.75053760
_cell_formula_units_Z   4
loop_
 _symmetry_equiv_pos_site_id
 _symmetry_equiv_pos_as_xyz
  1  'x, y, z'
loop_
 _atom_site_type_symbol
 _atom_site_label
 _atom_site_symmetry_multiplicity
 _atom_site_fract_x
 _atom_site_fract_y
 _atom_site_fract_z
 _atom_site_occupancy
  C  C0  1  0.76277400  0.28988400  0.82817500  1
  C  C1  1  0.52656900  0.98524700  0.13105700  1
  C  C2  1  0.26277400  0.71011600  0.67182500  1
  C  C3  1  0.02656900  0.01475300  0.36894300  1
  C  C4  1  0.97343100  0.98524700  0.63105700  1
  C  C5  1  0.73722600  0.28988400  0.32817500  1
  C  C6  1  0.47343100  0.01475300  0.86894300  1
  C  C7  1  0.23722600  0.71011600  0.17182500  1
  C  C8  1  0.45967600  0.34621100  0.84476700  1
  C  C9  1  0.30534500  0.83749700  0.36930000  1
  C  C10  1  0.95967600  0.65378900  0.65523300  1
  C  C11  1  0.80534500  0.16250300  0.13070000  1
  C  C12  1  0.19465500  0.83749700  0.86930000  1
  C  C13  1  0.04032400  0.34621100  0.34476700  1
  C  C14  1  0.69465500  0.16250300  0.63070000  1
  C  C15  1  0.54032400  0.65378900  0.15523300  1
  C  C16  1  0.17541400  0.23935100  0.83371800  1
  C  C17  1  0.00405700  0.16925900  0.89449700  1
  C  C18  1  0.75945300  0.42253800  0.56329100  1
  C  C19  1  0.13380500  0.44863700  0.62227800  1
  C  C20  1  0.74137000  0.69050100  0.34459300  1
  C  C21  1  0.88902500  0.68869800  0.41345400  1
  C  C22  1  0.12727000  0.34118100  0.87851700  1
  C  C23  1  0.05571400  0.88718700  0.19153400  1
  C  C24  1  0.29001100  0.03148000  0.02611200  1
  C  C25  1  0.62727000  0.65881900  0.62148300  1
  C  C26  1  0.63380500  0.55136300  0.87772200  1
  C  C27  1  0.74054700  0.42253800  0.06329100  1
  C  C28  1  0.50405700  0.83074100  0.60550300  1
  C  C29  1  0.79001100  0.96852000  0.47388800  1
  C  C30  1  0.67541400  0.76064900  0.66628200  1
  C  C31  1  0.55571400  0.11281300  0.30846600  1
  C  C32  1  0.75863000  0.69050100  0.84459300  1
  C  C33  1  0.61097500  0.68869800  0.91345400  1
  C  C34  1  0.38902500  0.31130200  0.08654600  1
  C  C35  1  0.24137000  0.30949900  0.15540700  1
  C  C36  1  0.44428600  0.88718700  0.69153400  1
  C  C37  1  0.32458600  0.23935100  0.33371800  1
  C  C38  1  0.20998900  0.03148000  0.52611200  1
  C  C39  1  0.49594300  0.16925900  0.39449700  1
  C  C40  1  0.25945300  0.57746200  0.93670900  1
  C  C41  1  0.36619500  0.44863700  0.12227800  1
  C  C42  1  0.37273000  0.34118100  0.37851700  1
  C  C43  1  0.70998900  0.96852000  0.97388800  1
  C  C44  1  0.94428600  0.11281300  0.80846600  1
  C  C45  1  0.87273000  0.65881900  0.12148300  1
  C  C46  1  0.11097500  0.31130200  0.58654600  1
  C  C47  1  0.25863000  0.30949900  0.65540700  1
  C  C48  1  0.86619500  0.55136300  0.37772200  1
  C  C49  1  0.24054700  0.57746200  0.43670900  1
  C  C50  1  0.99594300  0.83074100  0.10550300  1
  C  C51  1  0.82458600  0.76064900  0.16628200  1
  Ni  Ni52  1  0.84271600  0.66719900  0.35417500  1
  Ni  Ni53  1  0.65728400  0.66719900  0.85417500  1
  Ni  Ni54  1  0.34271600  0.33280100  0.14582500  1
  Ni  Ni55  1  0.15728400  0.33280100  0.64582500  1
  Cu  Cu56  1  0.64650500  0.06677700  0.93551500  1
  Cu  Cu57  1  0.40754900  0.23875900  0.80294800  1
  Cu  Cu58  1  0.13915500  0.21934000  0.91476700  1
  Cu  Cu59  1  0.08278900  0.85968300  0.13368300  1
  Cu  Cu60  1  0.27050400  0.69081500  0.35168800  1
  Cu  Cu61  1  0.82528200  0.27198400  0.97930100  1
  Cu  Cu62  1  0.86233000  0.50734500  0.69879200  1
  Cu  Cu63  1  0.60127700  0.42553900  0.77833600  1
  Cu  Cu64  1  0.10127700  0.57446100  0.72166400  1
  Cu  Cu65  1  0.36233000  0.49265500  0.80120800  1
  Cu  Cu66  1  0.32528200  0.72801600  0.52069900  1
  Cu  Cu67  1  0.97486100  0.77310200  0.49868700  1
  Cu  Cu68  1  0.43520000  0.92613400  0.28854500  1
  Cu  Cu69  1  0.68737800  0.03383800  0.19032800  1
  Cu  Cu70  1  0.63915500  0.78066000  0.58523300  1
  Cu  Cu71  1  0.18737800  0.96616200  0.30967200  1
  Cu  Cu72  1  0.93520000  0.07386600  0.21145500  1
  Cu  Cu73  1  0.47486100  0.22689800  0.00131300  1
  Cu  Cu74  1  0.90754900  0.76124100  0.69705200  1
  Cu  Cu75  1  0.41721100  0.85968300  0.63368300  1
  Cu  Cu76  1  0.22949600  0.69081500  0.85168800  1
  Cu  Cu77  1  0.14650500  0.93322300  0.56448500  1
  Cu  Cu78  1  0.85349500  0.06677700  0.43551500  1
  Cu  Cu79  1  0.77050400  0.30918500  0.14831200  1
  Cu  Cu80  1  0.58278900  0.14031700  0.36631700  1
  Cu  Cu81  1  0.09245100  0.23875900  0.30294800  1
  Cu  Cu82  1  0.52513900  0.77310200  0.99868700  1
  Cu  Cu83  1  0.06480000  0.92613400  0.78854500  1
  Cu  Cu84  1  0.81262200  0.03383800  0.69032800  1
  Cu  Cu85  1  0.36084500  0.21934000  0.41476700  1
  Cu  Cu86  1  0.31262200  0.96616200  0.80967200  1
  Cu  Cu87  1  0.56480000  0.07386600  0.71145500  1
  Cu  Cu88  1  0.02513900  0.22689800  0.50131300  1
  Cu  Cu89  1  0.67471800  0.27198400  0.47930100  1
  Cu  Cu90  1  0.63767000  0.50734500  0.19879200  1
  Cu  Cu91  1  0.89872300  0.42553900  0.27833600  1
  Cu  Cu92  1  0.39872300  0.57446100  0.22166400  1
  Cu  Cu93  1  0.13767000  0.49265500  0.30120800  1
  Cu  Cu94  1  0.17471800  0.72801600  0.02069900  1
  Cu  Cu95  1  0.72949600  0.30918500  0.64831200  1
  Cu  Cu96  1  0.91721100  0.14031700  0.86631700  1
  Cu  Cu97  1  0.86084500  0.78066000  0.08523300  1
  Cu  Cu98  1  0.59245100  0.76124100  0.19705200  1
  Cu  Cu99  1  0.35349500  0.93322300  0.06448500  1
