# generated using pymatgen
data_CuNi6C7
_symmetry_space_group_name_H-M   'P 1'
_cell_length_a   8.17452100
_cell_length_b   11.23366300
_cell_length_c   14.20895300
_cell_angle_alpha   90.00000000
_cell_angle_beta   90.00000000
_cell_angle_gamma   90.00000000
_symmetry_Int_Tables_number   1
_chemical_formula_structural   CuNi6C7
_chemical_formula_sum   'Cu8 Ni48 C56'
_cell_volume   1304.80551255
_cell_formula_units_Z   8
loop_
 _symmetry_equiv_pos_site_id
 _symmetry_equiv_pos_as_xyz
  1  'x, y, z'
loop_
 _atom_site_type_symbol
 _atom_site_label
 _atom_site_symmetry_multiplicity
 _atom_site_fract_x
 _atom_site_fract_y
 _atom_site_fract_z
 _atom_site_occupancy
  C  C0  1  0.01580800  0.07331700  0.81953400  1
  C  C1  1  0.51580800  0.92668300  0.68046600  1
  C  C2  1  0.98419200  0.42668300  0.31953400  1
  C  C3  1  0.48419200  0.57331700  0.18046600  1
  C  C4  1  0.98419200  0.92668300  0.18046600  1
  C  C5  1  0.48419200  0.07331700  0.31953400  1
  C  C6  1  0.01580800  0.57331700  0.68046600  1
  C  C7  1  0.51580800  0.42668300  0.81953400  1
  C  C8  1  0.93209900  0.37542200  0.87006700  1
  C  C9  1  0.43209900  0.62457800  0.62993300  1
  C  C10  1  0.06790100  0.12457800  0.37006700  1
  C  C11  1  0.56790100  0.87542200  0.12993300  1
  C  C12  1  0.06790100  0.62457800  0.12993300  1
  C  C13  1  0.56790100  0.37542200  0.37006700  1
  C  C14  1  0.93209900  0.87542200  0.62993300  1
  C  C15  1  0.43209900  0.12457800  0.87006700  1
  Ni  Ni16  1  0.83917000  0.96626100  0.96390800  1
  Ni  Ni17  1  0.33917000  0.03373900  0.53609200  1
  Ni  Ni18  1  0.16083000  0.53373900  0.46390800  1
  Ni  Ni19  1  0.66083000  0.46626100  0.03609200  1
  Ni  Ni20  1  0.16083000  0.03373900  0.03609200  1
  Ni  Ni21  1  0.66083000  0.96626100  0.46390800  1
  Ni  Ni22  1  0.83917000  0.46626100  0.53609200  1
  Ni  Ni23  1  0.33917000  0.53373900  0.96390800  1
  Ni  Ni24  1  0.74549200  0.97487300  0.86905500  1
  Ni  Ni25  1  0.24549200  0.02512700  0.63094500  1
  Ni  Ni26  1  0.25450800  0.52512700  0.36905500  1
  Ni  Ni27  1  0.75450800  0.47487300  0.13094500  1
  Ni  Ni28  1  0.25450800  0.02512700  0.13094500  1
  Ni  Ni29  1  0.75450800  0.97487300  0.36905500  1
  Ni  Ni30  1  0.74549200  0.47487300  0.63094500  1
  Ni  Ni31  1  0.24549200  0.52512700  0.86905500  1
  Ni  Ni32  1  0.08510800  0.27223500  0.99943000  1
  Ni  Ni33  1  0.58510800  0.72776500  0.50057000  1
  Ni  Ni34  1  0.91489200  0.22776500  0.49943000  1
  Ni  Ni35  1  0.41489200  0.77223500  0.00057000  1
  Ni  Ni36  1  0.91489200  0.72776500  0.00057000  1
  Ni  Ni37  1  0.41489200  0.27223500  0.49943000  1
  Ni  Ni38  1  0.08510800  0.77223500  0.50057000  1
  Ni  Ni39  1  0.58510800  0.22776500  0.99943000  1
  Ni  Ni40  1  0.66356200  0.18546800  0.68767200  1
  Ni  Ni41  1  0.16356200  0.81453200  0.81232800  1
  Ni  Ni42  1  0.33643800  0.31453200  0.18767200  1
  Ni  Ni43  1  0.83643800  0.68546800  0.31232800  1
  Ni  Ni44  1  0.33643800  0.81453200  0.31232800  1
  Ni  Ni45  1  0.83643800  0.18546800  0.18767200  1
  Ni  Ni46  1  0.66356200  0.68546800  0.81232800  1
  Ni  Ni47  1  0.16356200  0.31453200  0.68767200  1
  Ni  Ni48  1  0.74038100  0.14062600  0.09359900  1
  Ni  Ni49  1  0.24038100  0.85937400  0.40640100  1
  Ni  Ni50  1  0.25961900  0.35937400  0.59359900  1
  Ni  Ni51  1  0.75961900  0.64062600  0.90640100  1
  Ni  Ni52  1  0.25961900  0.85937400  0.90640100  1
  Ni  Ni53  1  0.75961900  0.14062600  0.59359900  1
  Ni  Ni54  1  0.74038100  0.64062600  0.40640100  1
  Ni  Ni55  1  0.24038100  0.35937400  0.09359900  1
  Ni  Ni56  1  0.34403300  0.26311200  0.66404000  1
  Ni  Ni57  1  0.84403300  0.73688800  0.83596000  1
  Ni  Ni58  1  0.65596700  0.23688800  0.16404000  1
  Ni  Ni59  1  0.15596700  0.76311200  0.33596000  1
  Ni  Ni60  1  0.65596700  0.73688800  0.33596000  1
  Ni  Ni61  1  0.15596700  0.26311200  0.16404000  1
  Ni  Ni62  1  0.34403300  0.76311200  0.83596000  1
  Ni  Ni63  1  0.84403300  0.23688800  0.66404000  1
  Cu  Cu64  1  0.73530800  0.21443100  0.63324900  1
  Cu  Cu65  1  0.23530800  0.78556900  0.86675100  1
  Cu  Cu66  1  0.26469200  0.28556900  0.13324900  1
  Cu  Cu67  1  0.76469200  0.71443100  0.36675100  1
  Cu  Cu68  1  0.26469200  0.78556900  0.36675100  1
  Cu  Cu69  1  0.76469200  0.21443100  0.13324900  1
  Cu  Cu70  1  0.73530800  0.71443100  0.86675100  1
  Cu  Cu71  1  0.23530800  0.28556900  0.63324900  1
  C  C72  1  0.02950200  0.48949600  0.80391900  1
  C  C73  1  0.52950200  0.51050400  0.69608100  1
  C  C74  1  0.97049800  0.01050400  0.30391900  1
  C  C75  1  0.47049800  0.98949600  0.19608100  1
  C  C76  1  0.97049800  0.51050400  0.19608100  1
  C  C77  1  0.47049800  0.48949600  0.30391900  1
  C  C78  1  0.02950200  0.98949600  0.69608100  1
  C  C79  1  0.52950200  0.01050400  0.80391900  1
  C  C80  1  0.94662100  0.24157200  0.80734000  1
  C  C81  1  0.44662100  0.75842800  0.69266000  1
  C  C82  1  0.05337900  0.25842800  0.30734000  1
  C  C83  1  0.55337900  0.74157200  0.19266000  1
  C  C84  1  0.05337900  0.75842800  0.19266000  1
  C  C85  1  0.55337900  0.24157200  0.30734000  1
  C  C86  1  0.94662100  0.74157200  0.69266000  1
  C  C87  1  0.44662100  0.25842800  0.80734000  1
  C  C88  1  0.72244900  0.41034400  0.89284100  1
  C  C89  1  0.22244900  0.58965600  0.60715900  1
  C  C90  1  0.27755100  0.08965600  0.39284100  1
  C  C91  1  0.77755100  0.91034400  0.10715900  1
  C  C92  1  0.27755100  0.58965600  0.10715900  1
  C  C93  1  0.77755100  0.41034400  0.39284100  1
  C  C94  1  0.72244900  0.91034400  0.60715900  1
  C  C95  1  0.22244900  0.08965600  0.89284100  1
  C  C96  1  0.04484500  0.35252700  0.98539400  1
  C  C97  1  0.54484500  0.64747300  0.51460600  1
  C  C98  1  0.95515500  0.14747300  0.48539400  1
  C  C99  1  0.45515500  0.85252700  0.01460600  1
  C  C100  1  0.95515500  0.64747300  0.01460600  1
  C  C101  1  0.45515500  0.35252700  0.48539400  1
  C  C102  1  0.04484500  0.85252700  0.51460600  1
  C  C103  1  0.54484500  0.14747300  0.98539400  1
  C  C104  1  0.85140500  0.99281100  0.89903300  1
  C  C105  1  0.35140500  0.00718900  0.60096700  1
  C  C106  1  0.14859500  0.50718900  0.39903300  1
  C  C107  1  0.64859500  0.49281100  0.10096700  1
  C  C108  1  0.14859500  0.00718900  0.10096700  1
  C  C109  1  0.64859500  0.99281100  0.39903300  1
  C  C110  1  0.85140500  0.49281100  0.60096700  1
  C  C111  1  0.35140500  0.50718900  0.89903300  1
