# generated using pymatgen
data_Cu3(Ni8C11)2
_symmetry_space_group_name_H-M   'P 1'
_cell_length_a   7.51997832
_cell_length_b   7.51997832
_cell_length_c   18.26440836
_cell_angle_alpha   79.56204164
_cell_angle_beta   79.56204164
_cell_angle_gamma   52.86586633
_symmetry_Int_Tables_number   1
_chemical_formula_structural   Cu3(Ni8C11)2
_chemical_formula_sum   'Cu6 Ni32 C44'
_cell_volume   806.38707984
_cell_formula_units_Z   2
loop_
 _symmetry_equiv_pos_site_id
 _symmetry_equiv_pos_as_xyz
  1  'x, y, z'
loop_
 _atom_site_type_symbol
 _atom_site_label
 _atom_site_symmetry_multiplicity
 _atom_site_fract_x
 _atom_site_fract_y
 _atom_site_fract_z
 _atom_site_occupancy
  C  C0  1  0.35224000  0.31608700  0.39084600  1
  C  C1  1  0.31608700  0.35224000  0.89084600  1
  C  C2  1  0.68391300  0.64776000  0.10915400  1
  C  C3  1  0.64776000  0.68391300  0.60915400  1
  Ni  Ni4  1  0.18917700  0.79428200  0.34391400  1
  Ni  Ni5  1  0.81930300  0.18658100  0.10592200  1
  Ni  Ni6  1  0.34587800  0.55085000  0.14362200  1
  Ni  Ni7  1  0.64393200  0.32387300  0.04559300  1
  Ni  Ni8  1  0.79428200  0.18917700  0.84391400  1
  Ni  Ni9  1  0.18658100  0.81930300  0.60592200  1
  Ni  Ni10  1  0.77963800  0.87802000  0.19691600  1
  Ni  Ni11  1  0.97085800  0.76485000  0.01422800  1
  Ni  Ni12  1  0.72505000  0.98721200  0.01399000  1
  Ni  Ni13  1  0.55085000  0.34587800  0.64362200  1
  Ni  Ni14  1  0.32387300  0.64393200  0.54559300  1
  Ni  Ni15  1  0.28799900  0.25782200  0.24558900  1
  Ni  Ni16  1  0.74217800  0.71200100  0.25441100  1
  Ni  Ni17  1  0.01278800  0.27495000  0.48601000  1
  Ni  Ni18  1  0.23515000  0.02914200  0.48577200  1
  Ni  Ni19  1  0.12198000  0.22036200  0.30308400  1
  Ni  Ni20  1  0.87802000  0.77963800  0.69691600  1
  Ni  Ni21  1  0.76485000  0.97085800  0.51422800  1
  Ni  Ni22  1  0.98721200  0.72505000  0.51399000  1
  Ni  Ni23  1  0.25782200  0.28799900  0.74558900  1
  Ni  Ni24  1  0.71200100  0.74217800  0.75441100  1
  Ni  Ni25  1  0.67612700  0.35606800  0.45440700  1
  Ni  Ni26  1  0.44915000  0.65412200  0.35637800  1
  Ni  Ni27  1  0.27495000  0.01278800  0.98601000  1
  Ni  Ni28  1  0.02914200  0.23515000  0.98577200  1
  Ni  Ni29  1  0.22036200  0.12198000  0.80308400  1
  Ni  Ni30  1  0.81341900  0.18069700  0.39407800  1
  Ni  Ni31  1  0.20571800  0.81082300  0.15608600  1
  Ni  Ni32  1  0.35606800  0.67612700  0.95440700  1
  Ni  Ni33  1  0.65412200  0.44915000  0.85637800  1
  Ni  Ni34  1  0.18069700  0.81341900  0.89407800  1
  Ni  Ni35  1  0.81082300  0.20571800  0.65608600  1
  Cu  Cu36  1  0.74477300  0.69524300  0.41118100  1
  Cu  Cu37  1  0.30475700  0.25522700  0.08881900  1
  Cu  Cu38  1  0.69524300  0.74477300  0.91118100  1
  Cu  Cu39  1  0.25522700  0.30475700  0.58881900  1
  Cu  Cu40  1  0.81914600  0.18085400  0.25000000  1
  Cu  Cu41  1  0.18085400  0.81914600  0.75000000  1
  C  C42  1  0.31876900  0.64787400  0.36302700  1
  C  C43  1  0.68975400  0.23412400  0.43503500  1
  C  C44  1  0.91100800  0.01700400  0.19305900  1
  C  C45  1  0.60803500  0.22217100  0.28831800  1
  C  C46  1  0.64787400  0.31876900  0.86302700  1
  C  C47  1  0.23412400  0.68975400  0.93503500  1
  C  C48  1  0.97802800  0.62654500  0.39797700  1
  C  C49  1  0.01700400  0.91100800  0.69305900  1
  C  C50  1  0.59000600  0.93888400  0.41788600  1
  C  C51  1  0.36759300  0.30793200  0.14949100  1
  C  C52  1  0.22217100  0.60803500  0.78831800  1
  C  C53  1  0.42270600  0.28065500  0.01560100  1
  C  C54  1  0.82820800  0.85124500  0.04535100  1
  C  C55  1  0.22791600  0.25923000  0.29858300  1
  C  C56  1  0.74077000  0.77208400  0.20141700  1
  C  C57  1  0.14875500  0.17179200  0.45464900  1
  C  C58  1  0.71934500  0.57729400  0.48439900  1
  C  C59  1  0.62654500  0.97802800  0.89797700  1
  C  C60  1  0.69206800  0.63240700  0.35050900  1
  C  C61  1  0.06111600  0.40999400  0.08211400  1
  C  C62  1  0.93888400  0.59000600  0.91788600  1
  C  C63  1  0.30793200  0.36759300  0.64949100  1
  C  C64  1  0.37345500  0.02197200  0.10202300  1
  C  C65  1  0.28065500  0.42270600  0.51560100  1
  C  C66  1  0.85124500  0.82820800  0.54535100  1
  C  C67  1  0.25923000  0.22791600  0.79858300  1
  C  C68  1  0.77208400  0.74077000  0.70141700  1
  C  C69  1  0.17179200  0.14875500  0.95464900  1
  C  C70  1  0.57729400  0.71934500  0.98439900  1
  C  C71  1  0.77782900  0.39196500  0.21168200  1
  C  C72  1  0.63240700  0.69206800  0.85050900  1
  C  C73  1  0.40999400  0.06111600  0.58211400  1
  C  C74  1  0.98299600  0.08899200  0.30694100  1
  C  C75  1  0.02197200  0.37345500  0.60202300  1
  C  C76  1  0.76587600  0.31024600  0.06496500  1
  C  C77  1  0.35212600  0.68123100  0.13697300  1
  C  C78  1  0.39196500  0.77782900  0.71168200  1
  C  C79  1  0.08899200  0.98299600  0.80694100  1
  C  C80  1  0.31024600  0.76587600  0.56496500  1
  C  C81  1  0.68123100  0.35212600  0.63697300  1
