# generated using pymatgen
data_Cu7NiC40
_symmetry_space_group_name_H-M   'P 1'
_cell_length_a   5.22381200
_cell_length_b   9.07096525
_cell_length_c   11.47609945
_cell_angle_alpha   111.88513457
_cell_angle_beta   102.37310290
_cell_angle_gamma   90.20178390
_symmetry_Int_Tables_number   1
_chemical_formula_structural   Cu7NiC40
_chemical_formula_sum   'Cu7 Ni1 C40'
_cell_volume   490.79437913
_cell_formula_units_Z   1
loop_
 _symmetry_equiv_pos_site_id
 _symmetry_equiv_pos_as_xyz
  1  'x, y, z'
loop_
 _atom_site_type_symbol
 _atom_site_label
 _atom_site_symmetry_multiplicity
 _atom_site_fract_x
 _atom_site_fract_y
 _atom_site_fract_z
 _atom_site_occupancy
  C  C0  1  0.02305100  0.03562200  0.41786400  1
  C  C1  1  0.29925000  0.28437100  0.91591700  1
  C  C2  1  0.48605800  0.50349300  0.66367700  1
  C  C3  1  0.26604600  0.24945900  0.16804700  1
  C  C4  1  0.52151800  0.53711000  0.41597100  1
  C  C5  1  0.79875800  0.78191300  0.91662200  1
  C  C6  1  0.98490800  0.00626100  0.66771200  1
  C  C7  1  0.76594300  0.74900700  0.16918900  1
  Ni  Ni8  1  0.98186700  0.65327800  0.63330300  1
  Cu  Cu9  1  0.00307300  0.35012800  0.37702600  1
  Cu  Cu10  1  0.27149100  0.94402800  0.88461700  1
  Cu  Cu11  1  0.48435600  0.15831300  0.63534000  1
  Cu  Cu12  1  0.24702900  0.56776700  0.13210700  1
  Cu  Cu13  1  0.50921300  0.85723500  0.38331800  1
  Cu  Cu14  1  0.77966000  0.44049800  0.88467000  1
  Cu  Cu15  1  0.74522000  0.06528400  0.13015200  1
  C  C16  1  0.01707000  0.68267700  0.37397600  1
  C  C17  1  0.27290200  0.60238800  0.87654300  1
  C  C18  1  0.23489200  0.89837400  0.12707600  1
  C  C19  1  0.47558900  0.81709800  0.62777200  1
  C  C20  1  0.51529900  0.18401400  0.37498300  1
  C  C21  1  0.76943600  0.10385800  0.87810600  1
  C  C22  1  0.73365500  0.39818200  0.12532900  1
  C  C23  1  0.98079400  0.31158100  0.62509300  1
  C  C24  1  0.02746100  0.10782900  0.86517000  1
  C  C25  1  0.11157500  0.71380800  0.84983900  1
  C  C26  1  0.17471400  0.49016100  0.91651600  1
  C  C27  1  0.08802800  0.16874200  0.61507700  1
  C  C28  1  0.10799700  0.42235900  0.59402200  1
  C  C29  1  0.24253000  0.85107100  0.66935200  1
  C  C30  1  0.26492100  0.65634100  0.34423600  1
  C  C31  1  0.52757100  0.60116800  0.85971700  1
  C  C32  1  0.60557500  0.21251200  0.84861600  1
  C  C33  1  0.39824400  0.07986600  0.41645400  1
  C  C34  1  0.39114000  0.31186400  0.35997200  1
  C  C35  1  0.67457000  0.99045900  0.91750000  1
  C  C36  1  0.33942200  0.01900200  0.09763800  1
  C  C37  1  0.57662300  0.67157700  0.61293300  1
  C  C38  1  0.60481400  0.92809700  0.59697700  1
  C  C39  1  0.39749700  0.79471900  0.16408100  1
  C  C40  1  0.46386300  0.38112200  0.11415000  1
  C  C41  1  0.74387900  0.34329200  0.66382600  1
  C  C42  1  0.76423100  0.15528800  0.34636400  1
  C  C43  1  0.90204700  0.57741000  0.41510200  1
  C  C44  1  0.88955500  0.81059400  0.36095100  1
  C  C45  1  0.83889300  0.51846700  0.09584500  1
  C  C46  1  0.89586200  0.29451400  0.16284200  1
  C  C47  1  0.96511000  0.88099800  0.11600900  1
