# generated using pymatgen
data_Cu2NiC6
_symmetry_space_group_name_H-M   'P 1'
_cell_length_a   9.98115800
_cell_length_b   9.98836300
_cell_length_c   18.22912174
_cell_angle_alpha   63.06073579
_cell_angle_beta   90.00000000
_cell_angle_gamma   90.00000000
_symmetry_Int_Tables_number   1
_chemical_formula_structural   Cu2NiC6
_chemical_formula_sum   'Cu8 Ni4 C24'
_cell_volume   1620.15341184
_cell_formula_units_Z   4
loop_
 _symmetry_equiv_pos_site_id
 _symmetry_equiv_pos_as_xyz
  1  'x, y, z'
loop_
 _atom_site_type_symbol
 _atom_site_label
 _atom_site_symmetry_multiplicity
 _atom_site_fract_x
 _atom_site_fract_y
 _atom_site_fract_z
 _atom_site_occupancy
  Ni  Ni0  1  0.69008300  0.91382400  0.41466900  1
  Ni  Ni1  1  0.19008300  0.08617600  0.08533100  1
  Ni  Ni2  1  0.80991700  0.91382400  0.91466900  1
  Ni  Ni3  1  0.30991700  0.08617600  0.58533100  1
  Cu  Cu4  1  0.66378600  0.31232700  0.08143600  1
  Cu  Cu5  1  0.95953200  0.62554200  0.74339200  1
  Cu  Cu6  1  0.45953200  0.37445800  0.75660800  1
  Cu  Cu7  1  0.16378600  0.68767300  0.41856400  1
  Cu  Cu8  1  0.83621400  0.31232700  0.58143600  1
  Cu  Cu9  1  0.54046800  0.62554200  0.24339200  1
  Cu  Cu10  1  0.04046800  0.37445800  0.25660800  1
  Cu  Cu11  1  0.33621400  0.68767300  0.91856400  1
  C  C12  1  0.34634500  0.95031300  0.43680700  1
  C  C13  1  0.30598300  0.69336300  0.72393100  1
  C  C14  1  0.66986500  0.61435800  0.87812000  1
  C  C15  1  0.97135800  0.77273100  0.54299400  1
  C  C16  1  0.09434400  0.44370200  0.92224700  1
  C  C17  1  0.01880100  0.03512600  0.27405600  1
  C  C18  1  0.51880100  0.96487400  0.22594400  1
  C  C19  1  0.47135800  0.22726900  0.95700600  1
  C  C20  1  0.59434400  0.55629800  0.57775300  1
  C  C21  1  0.16986500  0.38564200  0.62188000  1
  C  C22  1  0.80598300  0.30663700  0.77606900  1
  C  C23  1  0.84634500  0.04968700  0.06319300  1
  C  C24  1  0.15365500  0.95031300  0.93680700  1
  C  C25  1  0.19401700  0.69336300  0.22393100  1
  C  C26  1  0.83013500  0.61435800  0.37812000  1
  C  C27  1  0.40565600  0.44370200  0.42224700  1
  C  C28  1  0.52864200  0.77273100  0.04299400  1
  C  C29  1  0.48119900  0.03512600  0.77405600  1
  C  C30  1  0.98119900  0.96487400  0.72594400  1
  C  C31  1  0.90565600  0.55629800  0.07775300  1
  C  C32  1  0.02864200  0.22726900  0.45700600  1
  C  C33  1  0.33013500  0.38564200  0.12188000  1
  C  C34  1  0.69401700  0.30663700  0.27606900  1
  C  C35  1  0.65365500  0.04968700  0.56319300  1
