# generated using pymatgen
data_Cu3NiC32
_symmetry_space_group_name_H-M   'P 1'
_cell_length_a   8.65703681
_cell_length_b   8.64989356
_cell_length_c   8.64989346
_cell_angle_alpha   59.99999553
_cell_angle_beta   60.02728816
_cell_angle_gamma   60.02729159
_symmetry_Int_Tables_number   1
_chemical_formula_structural   Cu3NiC32
_chemical_formula_sum   'Cu3 Ni1 C32'
_cell_volume   458.19968933
_cell_formula_units_Z   1
loop_
 _symmetry_equiv_pos_site_id
 _symmetry_equiv_pos_as_xyz
  1  'x, y, z'
loop_
 _atom_site_type_symbol
 _atom_site_label
 _atom_site_symmetry_multiplicity
 _atom_site_fract_x
 _atom_site_fract_y
 _atom_site_fract_z
 _atom_site_occupancy
  Ni  Ni0  1  0.57088700  0.14303800  0.14303800  1
  Cu  Cu1  1  0.07110700  0.64296400  0.64296400  1
  Cu  Cu2  1  0.43356500  0.85547900  0.85547900  1
  Cu  Cu3  1  0.93058600  0.35647100  0.35647100  1
  C  C4  1  0.00981500  0.99672800  0.99672800  1
  C  C5  1  0.50131100  0.49956300  0.49956300  1
  C  C6  1  0.24268000  0.25286000  0.54923400  1
  C  C7  1  0.24268000  0.95522600  0.25286000  1
  C  C8  1  0.24268000  0.54923400  0.95522600  1
  C  C9  1  0.75185500  0.46444900  0.04107600  1
  C  C10  1  0.75185500  0.04107600  0.74262000  1
  C  C11  1  0.75185500  0.74262000  0.46444900  1
  C  C12  1  0.06857200  0.11671000  0.30806100  1
  C  C13  1  0.06857200  0.50665700  0.11671000  1
  C  C14  1  0.06857200  0.30806100  0.50665700  1
  C  C15  1  0.23668000  0.08581300  0.73932800  1
  C  C16  1  0.42492900  0.19116700  0.38577500  1
  C  C17  1  0.26629900  0.41480900  0.55812800  1
  C  C18  1  0.23668000  0.93817900  0.08581300  1
  C  C19  1  0.26629900  0.76076200  0.41480900  1
  C  C20  1  0.57110600  0.61852000  0.00385800  1
  C  C21  1  0.26629900  0.55812800  0.76076200  1
  C  C22  1  0.76550300  0.26517900  0.06072000  1
  C  C23  1  0.57110600  0.00385800  0.80651500  1
  C  C24  1  0.42492900  0.99812900  0.19116700  1
  C  C25  1  0.23668000  0.73932800  0.93817900  1
  C  C26  1  0.73532900  0.44194400  0.23886400  1
  C  C27  1  0.42492900  0.38577500  0.99812900  1
  C  C28  1  0.73532900  0.23886400  0.58386300  1
  C  C29  1  0.76550300  0.06072000  0.90859800  1
  C  C30  1  0.73532900  0.58386300  0.44194400  1
  C  C31  1  0.57110600  0.80651500  0.61852000  1
  C  C32  1  0.76550300  0.90859800  0.26517900  1
  C  C33  1  0.93129200  0.69113300  0.49663200  1
  C  C34  1  0.93129200  0.49663200  0.88094400  1
  C  C35  1  0.93129200  0.88094400  0.69113300  1
