# generated using pymatgen
data_Cu12Ni3C4
_symmetry_space_group_name_H-M   'P 1'
_cell_length_a   8.62601000
_cell_length_b   8.78089600
_cell_length_c   13.23570700
_cell_angle_alpha   90.00000000
_cell_angle_beta   90.00000000
_cell_angle_gamma   90.00000000
_symmetry_Int_Tables_number   1
_chemical_formula_structural   Cu12Ni3C4
_chemical_formula_sum   'Cu48 Ni12 C16'
_cell_volume   1002.52667097
_cell_formula_units_Z   4
loop_
 _symmetry_equiv_pos_site_id
 _symmetry_equiv_pos_as_xyz
  1  'x, y, z'
loop_
 _atom_site_type_symbol
 _atom_site_label
 _atom_site_symmetry_multiplicity
 _atom_site_fract_x
 _atom_site_fract_y
 _atom_site_fract_z
 _atom_site_occupancy
  C  C0  1  0.22330400  0.27739100  0.18522600  1
  C  C1  1  0.77669600  0.77739100  0.18522600  1
  C  C2  1  0.27669600  0.77739100  0.31477400  1
  C  C3  1  0.72330400  0.27739100  0.31477400  1
  C  C4  1  0.27669600  0.72260900  0.68522600  1
  C  C5  1  0.72330400  0.22260900  0.68522600  1
  C  C6  1  0.22330400  0.22260900  0.81477400  1
  C  C7  1  0.77669600  0.72260900  0.81477400  1
  C  C8  1  0.24927600  0.96033800  0.10851700  1
  C  C9  1  0.75072400  0.46033800  0.10851700  1
  C  C10  1  0.74927600  0.96033800  0.39148300  1
  C  C11  1  0.25072400  0.46033800  0.39148300  1
  C  C12  1  0.25072400  0.03966200  0.60851700  1
  C  C13  1  0.74927600  0.53966200  0.60851700  1
  C  C14  1  0.24927600  0.53966200  0.89148300  1
  C  C15  1  0.75072400  0.03966200  0.89148300  1
  Ni  Ni16  1  0.45511700  0.25000000  0.00000000  1
  Ni  Ni17  1  0.54488300  0.75000000  0.00000000  1
  Ni  Ni18  1  0.09919500  0.60705800  0.14495800  1
  Ni  Ni19  1  0.90080500  0.10705800  0.14495800  1
  Ni  Ni20  1  0.40080500  0.10705800  0.35504200  1
  Ni  Ni21  1  0.59919500  0.60705800  0.35504200  1
  Ni  Ni22  1  0.04488300  0.75000000  0.50000000  1
  Ni  Ni23  1  0.95511700  0.25000000  0.50000000  1
  Ni  Ni24  1  0.40080500  0.39294200  0.64495800  1
  Ni  Ni25  1  0.59919500  0.89294200  0.64495800  1
  Ni  Ni26  1  0.09919500  0.89294200  0.85504200  1
  Ni  Ni27  1  0.90080500  0.39294200  0.85504200  1
  Cu  Cu28  1  0.13218300  0.58319100  0.03841100  1
  Cu  Cu29  1  0.86781700  0.08319100  0.03841100  1
  Cu  Cu30  1  0.54770700  0.36318800  0.05457600  1
  Cu  Cu31  1  0.45229300  0.86318800  0.05457600  1
  Cu  Cu32  1  0.35238900  0.17432200  0.07658700  1
  Cu  Cu33  1  0.64761100  0.67432200  0.07658700  1
  Cu  Cu34  1  0.07367200  0.11284500  0.16172900  1
  Cu  Cu35  1  0.92632800  0.61284500  0.16172900  1
  Cu  Cu36  1  0.16504600  0.75681500  0.18107100  1
  Cu  Cu37  1  0.83495400  0.25681500  0.18107100  1
  Cu  Cu38  1  0.83595400  0.98408700  0.20911900  1
  Cu  Cu39  1  0.16404600  0.48408700  0.20911900  1
  Cu  Cu40  1  0.33595400  0.98408700  0.29088100  1
  Cu  Cu41  1  0.66404600  0.48408700  0.29088100  1
  Cu  Cu42  1  0.66504600  0.75681500  0.31892900  1
  Cu  Cu43  1  0.33495400  0.25681500  0.31892900  1
  Cu  Cu44  1  0.42632800  0.61284500  0.33827100  1
  Cu  Cu45  1  0.57367200  0.11284500  0.33827100  1
  Cu  Cu46  1  0.14761100  0.67432200  0.42341300  1
  Cu  Cu47  1  0.85238900  0.17432200  0.42341300  1
  Cu  Cu48  1  0.04770700  0.36318800  0.44542400  1
  Cu  Cu49  1  0.95229300  0.86318800  0.44542400  1
  Cu  Cu50  1  0.63218300  0.58319100  0.46158900  1
  Cu  Cu51  1  0.36781700  0.08319100  0.46158900  1
  Cu  Cu52  1  0.36781700  0.41680900  0.53841100  1
  Cu  Cu53  1  0.63218300  0.91680900  0.53841100  1
  Cu  Cu54  1  0.04770700  0.13681200  0.55457600  1
  Cu  Cu55  1  0.95229300  0.63681200  0.55457600  1
  Cu  Cu56  1  0.14761100  0.82567800  0.57658700  1
  Cu  Cu57  1  0.85238900  0.32567800  0.57658700  1
  Cu  Cu58  1  0.42632800  0.88715500  0.66172900  1
  Cu  Cu59  1  0.57367200  0.38715500  0.66172900  1
  Cu  Cu60  1  0.33495400  0.24318500  0.68107100  1
  Cu  Cu61  1  0.66504600  0.74318500  0.68107100  1
  Cu  Cu62  1  0.33595400  0.51591300  0.70911900  1
  Cu  Cu63  1  0.66404600  0.01591300  0.70911900  1
  Cu  Cu64  1  0.16404600  0.01591300  0.79088100  1
  Cu  Cu65  1  0.83595400  0.51591300  0.79088100  1
  Cu  Cu66  1  0.16504600  0.74318500  0.81892900  1
  Cu  Cu67  1  0.83495400  0.24318500  0.81892900  1
  Cu  Cu68  1  0.07367200  0.38715500  0.83827100  1
  Cu  Cu69  1  0.92632800  0.88715500  0.83827100  1
  Cu  Cu70  1  0.35238900  0.32567800  0.92341300  1
  Cu  Cu71  1  0.64761100  0.82567800  0.92341300  1
  Cu  Cu72  1  0.45229300  0.63681200  0.94542400  1
  Cu  Cu73  1  0.54770700  0.13681200  0.94542400  1
  Cu  Cu74  1  0.13218300  0.91680900  0.96158900  1
  Cu  Cu75  1  0.86781700  0.41680900  0.96158900  1
