# generated using pymatgen
data_CuNiC6
_symmetry_space_group_name_H-M   'P 1'
_cell_length_a   10.87600600
_cell_length_b   5.13526600
_cell_length_c   7.86366375
_cell_angle_alpha   51.58052241
_cell_angle_beta   90.00000000
_cell_angle_gamma   90.00000000
_symmetry_Int_Tables_number   1
_chemical_formula_structural   CuNiC6
_chemical_formula_sum   'Cu4 Ni4 C24'
_cell_volume   344.10143346
_cell_formula_units_Z   4
loop_
 _symmetry_equiv_pos_site_id
 _symmetry_equiv_pos_as_xyz
  1  'x, y, z'
loop_
 _atom_site_type_symbol
 _atom_site_label
 _atom_site_symmetry_multiplicity
 _atom_site_fract_x
 _atom_site_fract_y
 _atom_site_fract_z
 _atom_site_occupancy
  C  C0  1  0.66299000  0.68037800  0.50763800  1
  C  C1  1  0.42728100  0.46262900  0.74415900  1
  C  C2  1  0.92728100  0.53737100  0.75584100  1
  C  C3  1  0.16299000  0.31962200  0.99236200  1
  C  C4  1  0.83701000  0.68037800  0.00763800  1
  C  C5  1  0.07271900  0.46262900  0.24415900  1
  C  C6  1  0.57271900  0.53737100  0.25584100  1
  C  C7  1  0.33701000  0.31962200  0.49236200  1
  Ni  Ni8  1  0.83237400  0.17582900  0.51084400  1
  Ni  Ni9  1  0.33237400  0.82417100  0.98915600  1
  Ni  Ni10  1  0.66762600  0.17582900  0.01084400  1
  Ni  Ni11  1  0.16762600  0.82417100  0.48915600  1
  Cu  Cu12  1  0.09040100  0.06457000  0.74473800  1
  Cu  Cu13  1  0.59040100  0.93543000  0.75526200  1
  Cu  Cu14  1  0.40959900  0.06457000  0.24473800  1
  Cu  Cu15  1  0.90959900  0.93543000  0.25526200  1
  C  C16  1  0.16503900  0.17821000  0.52357600  1
  C  C17  1  0.65921800  0.25767800  0.53391500  1
  C  C18  1  0.44965400  0.05984500  0.74963300  1
  C  C19  1  0.08945500  0.38776000  0.74121900  1
  C  C20  1  0.58945500  0.61224000  0.75878100  1
  C  C21  1  0.94965400  0.94015500  0.75036700  1
  C  C22  1  0.15921800  0.74232200  0.96608500  1
  C  C23  1  0.66503900  0.82179000  0.97642400  1
  C  C24  1  0.33496100  0.17821000  0.02357600  1
  C  C25  1  0.84078200  0.25767800  0.03391500  1
  C  C26  1  0.05034600  0.05984500  0.24963300  1
  C  C27  1  0.41054500  0.38776000  0.24121900  1
  C  C28  1  0.91054500  0.61224000  0.25878100  1
  C  C29  1  0.55034600  0.94015500  0.25036700  1
  C  C30  1  0.34078200  0.74232200  0.46608500  1
  C  C31  1  0.83496100  0.82179000  0.47642400  1
