# generated using pymatgen
data_CuNiC3
_symmetry_space_group_name_H-M   'P 1'
_cell_length_a   5.68178400
_cell_length_b   5.93756100
_cell_length_c   8.40251400
_cell_angle_alpha   90.00000000
_cell_angle_beta   90.00000000
_cell_angle_gamma   90.00000000
_symmetry_Int_Tables_number   1
_chemical_formula_structural   CuNiC3
_chemical_formula_sum   'Cu4 Ni4 C12'
_cell_volume   283.46670050
_cell_formula_units_Z   4
loop_
 _symmetry_equiv_pos_site_id
 _symmetry_equiv_pos_as_xyz
  1  'x, y, z'
loop_
 _atom_site_type_symbol
 _atom_site_label
 _atom_site_symmetry_multiplicity
 _atom_site_fract_x
 _atom_site_fract_y
 _atom_site_fract_z
 _atom_site_occupancy
  Ni  Ni0  1  0.01667600  0.94661100  0.75000000  1
  Ni  Ni1  1  0.48332400  0.44661100  0.75000000  1
  Ni  Ni2  1  0.51667600  0.55338900  0.25000000  1
  Ni  Ni3  1  0.98332400  0.05338900  0.25000000  1
  Cu  Cu4  1  0.00000000  0.50000000  0.00000000  1
  Cu  Cu5  1  0.00000000  0.50000000  0.50000000  1
  Cu  Cu6  1  0.50000000  0.00000000  0.00000000  1
  Cu  Cu7  1  0.50000000  0.00000000  0.50000000  1
  C  C8  1  0.14565500  0.42526800  0.25000000  1
  C  C9  1  0.18177600  0.18536500  0.57675700  1
  C  C10  1  0.18177600  0.18536500  0.92324300  1
  C  C11  1  0.31822400  0.68536500  0.92324300  1
  C  C12  1  0.31822400  0.68536500  0.57675700  1
  C  C13  1  0.35434500  0.92526800  0.25000000  1
  C  C14  1  0.64565500  0.07473200  0.75000000  1
  C  C15  1  0.68177600  0.31463500  0.07675700  1
  C  C16  1  0.68177600  0.31463500  0.42324300  1
  C  C17  1  0.81822400  0.81463500  0.07675700  1
  C  C18  1  0.81822400  0.81463500  0.42324300  1
  C  C19  1  0.85434500  0.57473200  0.75000000  1
