# generated using pymatgen
data_Cu18NiC8
_symmetry_space_group_name_H-M   'P 1'
_cell_length_a   10.03141242
_cell_length_b   10.03141242
_cell_length_c   10.03141242
_cell_angle_alpha   99.74098004
_cell_angle_beta   99.74098004
_cell_angle_gamma   131.42287613
_symmetry_Int_Tables_number   1
_chemical_formula_structural   Cu18NiC8
_chemical_formula_sum   'Cu36 Ni2 C16'
_cell_volume   689.93570598
_cell_formula_units_Z   2
loop_
 _symmetry_equiv_pos_site_id
 _symmetry_equiv_pos_as_xyz
  1  'x, y, z'
loop_
 _atom_site_type_symbol
 _atom_site_label
 _atom_site_symmetry_multiplicity
 _atom_site_fract_x
 _atom_site_fract_y
 _atom_site_fract_z
 _atom_site_occupancy
  C  C0  1  0.23131300  0.90812300  0.15660000  1
  C  C1  1  0.73131300  0.57471300  0.32319000  1
  C  C2  1  0.40812300  0.73131300  0.15660000  1
  C  C3  1  0.90812300  0.75152300  0.67681000  1
  C  C4  1  0.86961200  0.36961200  0.50000000  1
  C  C5  1  0.36961200  0.86961200  0.50000000  1
  C  C6  1  0.07471300  0.23131300  0.32319000  1
  C  C7  1  0.57471300  0.25152300  0.84340000  1
  C  C8  1  0.25152300  0.40812300  0.67681000  1
  C  C9  1  0.75152300  0.07471300  0.84340000  1
  C  C10  1  0.24536900  0.24536900  0.00000000  1
  C  C11  1  0.74536900  0.74536900  0.00000000  1
  C  C12  1  0.81268200  0.31268200  0.16422200  1
  C  C13  1  0.31268200  0.14846000  0.50000000  1
  C  C14  1  0.14846000  0.64846000  0.83577800  1
  C  C15  1  0.64846000  0.81268200  0.50000000  1
  Ni  Ni16  1  0.02818200  0.02818200  0.00000000  1
  Ni  Ni17  1  0.52818200  0.52818200  0.00000000  1
  Cu  Cu18  1  0.43161000  0.26005500  0.12505400  1
  Cu  Cu19  1  0.93161000  0.80655700  0.17155600  1
  Cu  Cu20  1  0.76240800  0.44244700  0.07977000  1
  Cu  Cu21  1  0.26240800  0.18263800  0.31996100  1
  Cu  Cu22  1  0.63969900  0.13969900  0.94390300  1
  Cu  Cu23  1  0.13969900  0.19579600  0.50000000  1
  Cu  Cu24  1  0.58064100  0.08064100  0.17411400  1
  Cu  Cu25  1  0.08064100  0.90652700  0.50000000  1
  Cu  Cu26  1  0.79043000  0.42884800  0.33796700  1
  Cu  Cu27  1  0.29043000  0.95246300  0.36158200  1
  Cu  Cu28  1  0.06912400  0.56912400  0.26205300  1
  Cu  Cu29  1  0.56912400  0.30707100  0.50000000  1
  Cu  Cu30  1  0.94244700  0.26240800  0.07977000  1
  Cu  Cu31  1  0.44244700  0.36267700  0.68003900  1
  Cu  Cu32  1  0.26005500  0.13500100  0.82844400  1
  Cu  Cu33  1  0.76005500  0.93161000  0.12505400  1
  Cu  Cu34  1  0.92884800  0.29043000  0.33796700  1
  Cu  Cu35  1  0.42884800  0.09088100  0.63841800  1
  Cu  Cu36  1  0.95246300  0.59088100  0.66203300  1
  Cu  Cu37  1  0.45246300  0.79043000  0.36158200  1
  Cu  Cu38  1  0.80655700  0.63500100  0.87494600  1
  Cu  Cu39  1  0.30655700  0.43161000  0.17155600  1
  Cu  Cu40  1  0.68263800  0.76240800  0.31996100  1
  Cu  Cu41  1  0.18263800  0.86267700  0.92023000  1
  Cu  Cu42  1  0.30707100  0.80707100  0.73794700  1
  Cu  Cu43  1  0.80707100  0.06912400  0.50000000  1
  Cu  Cu44  1  0.59088100  0.92884800  0.63841800  1
  Cu  Cu45  1  0.09088100  0.45246300  0.66203300  1
  Cu  Cu46  1  0.90652700  0.40652700  0.82588600  1
  Cu  Cu47  1  0.40652700  0.58064100  0.50000000  1
  Cu  Cu48  1  0.19579600  0.69579600  0.05609700  1
  Cu  Cu49  1  0.69579600  0.63969900  0.50000000  1
  Cu  Cu50  1  0.36267700  0.68263800  0.92023000  1
  Cu  Cu51  1  0.86267700  0.94244700  0.68003900  1
  Cu  Cu52  1  0.63500100  0.76005500  0.82844400  1
  Cu  Cu53  1  0.13500100  0.30655700  0.87494600  1
