# generated using pymatgen
data_CuNiC11
_symmetry_space_group_name_H-M   'P 1'
_cell_length_a   8.89849811
_cell_length_b   8.89696727
_cell_length_c   11.17910393
_cell_angle_alpha   74.26671898
_cell_angle_beta   74.29005005
_cell_angle_gamma   106.10170537
_symmetry_Int_Tables_number   1
_chemical_formula_structural   CuNiC11
_chemical_formula_sum   'Cu4 Ni4 C44'
_cell_volume   759.03303070
_cell_formula_units_Z   4
loop_
 _symmetry_equiv_pos_site_id
 _symmetry_equiv_pos_as_xyz
  1  'x, y, z'
loop_
 _atom_site_type_symbol
 _atom_site_label
 _atom_site_symmetry_multiplicity
 _atom_site_fract_x
 _atom_site_fract_y
 _atom_site_fract_z
 _atom_site_occupancy
  C  C0  1  0.24731400  0.76452900  0.73701600  1
  C  C1  1  0.74747300  0.26456900  0.73707100  1
  C  C2  1  0.01460100  0.99707000  0.73686000  1
  C  C3  1  0.51462500  0.49714700  0.73689200  1
  C  C4  1  0.25258400  0.73549200  0.26291900  1
  C  C5  1  0.75259900  0.23542400  0.26291000  1
  C  C6  1  0.48546000  0.50301600  0.26301300  1
  C  C7  1  0.98529900  0.00280600  0.26313500  1
  C  C8  1  0.22315400  0.47315600  0.99525600  1
  C  C9  1  0.72316400  0.97312300  0.99529200  1
  C  C10  1  0.27682400  0.02686800  0.00475200  1
  C  C11  1  0.77686300  0.52685400  0.00475300  1
  C  C12  1  0.17863000  0.42846700  0.62552000  1
  C  C13  1  0.32171000  0.07189800  0.37435300  1
  C  C14  1  0.67842700  0.92820600  0.62564300  1
  C  C15  1  0.82151500  0.57098800  0.37466600  1
  Ni  Ni16  1  0.97813600  0.72808200  0.57718100  1
  Ni  Ni17  1  0.47804100  0.22797000  0.57732200  1
  Ni  Ni18  1  0.52190000  0.77197700  0.42270600  1
  Ni  Ni19  1  0.02185900  0.27193200  0.42275400  1
  Cu  Cu20  1  0.03220100  0.28218300  0.93180700  1
  Cu  Cu21  1  0.53224800  0.78224300  0.93186300  1
  Cu  Cu22  1  0.46779900  0.21783600  0.06808900  1
  Cu  Cu23  1  0.96774200  0.71776800  0.06816600  1
  C  C24  1  0.97831600  0.72816700  0.94764800  1
  C  C25  1  0.47841800  0.22817600  0.94759000  1
  C  C26  1  0.52160700  0.77186500  0.05236000  1
  C  C27  1  0.02163100  0.27189500  0.05232800  1
  C  C28  1  0.92379900  0.17373600  0.90932700  1
  C  C29  1  0.42383600  0.67377900  0.90929800  1
  C  C30  1  0.57618200  0.32626000  0.09066100  1
  C  C31  1  0.07617900  0.82622500  0.09068000  1
  C  C32  1  0.15999700  0.40973300  0.83238100  1
  C  C33  1  0.65999300  0.90975000  0.83238300  1
  C  C34  1  0.34000300  0.09030300  0.16754500  1
  C  C35  1  0.84001400  0.59019700  0.16762000  1
  C  C36  1  0.52447900  0.77459900  0.56133100  1
  C  C37  1  0.02459500  0.27469600  0.56131200  1
  C  C38  1  0.97534600  0.72524300  0.43865900  1
  C  C39  1  0.47553500  0.22549800  0.43864700  1
  C  C40  1  0.13625400  0.88616900  0.54695000  1
  C  C41  1  0.63613900  0.38592100  0.54733200  1
  C  C42  1  0.36375000  0.61398500  0.45278600  1
  C  C43  1  0.86371200  0.11388800  0.45294300  1
  C  C44  1  0.81793500  0.74766800  0.65932400  1
  C  C45  1  0.31782100  0.24756500  0.65936700  1
  C  C46  1  0.99749500  0.56781500  0.65953200  1
  C  C47  1  0.49727400  0.06759800  0.65958900  1
  C  C48  1  0.50262000  0.93234500  0.34039400  1
  C  C49  1  0.00250000  0.43223800  0.34042900  1
  C  C50  1  0.68208000  0.75235200  0.34063200  1
  C  C51  1  0.18207800  0.25246000  0.34057700  1
