# generated using pymatgen
data_Cu2Ni3C23
_symmetry_space_group_name_H-M   'P 1'
_cell_length_a   6.27617317
_cell_length_b   6.27617317
_cell_length_c   10.14648085
_cell_angle_alpha   88.60007351
_cell_angle_beta   88.60007351
_cell_angle_gamma   59.71959525
_symmetry_Int_Tables_number   1
_chemical_formula_structural   Cu2Ni3C23
_chemical_formula_sum   'Cu2 Ni3 C23'
_cell_volume   345.00822478
_cell_formula_units_Z   1
loop_
 _symmetry_equiv_pos_site_id
 _symmetry_equiv_pos_as_xyz
  1  'x, y, z'
loop_
 _atom_site_type_symbol
 _atom_site_label
 _atom_site_symmetry_multiplicity
 _atom_site_fract_x
 _atom_site_fract_y
 _atom_site_fract_z
 _atom_site_occupancy
  C  C0  1  0.67292400  0.67292400  0.10449500  1
  C  C1  1  0.99529100  0.99529100  0.01086000  1
  C  C2  1  0.99373100  0.99373100  0.50365900  1
  C  C3  1  0.33362700  0.33362700  0.59132700  1
  C  C4  1  0.83250200  0.83250200  0.79065100  1
  C  C5  1  0.16663800  0.66430100  0.28672900  1
  C  C6  1  0.66430100  0.16663800  0.28672900  1
  Ni  Ni7  1  0.33591800  0.83295900  0.78465400  1
  Ni  Ni8  1  0.83295900  0.33591800  0.78465400  1
  Ni  Ni9  1  0.16661500  0.16661500  0.28723500  1
  Cu  Cu10  1  0.67550800  0.67550800  0.50802100  1
  Cu  Cu11  1  0.34821100  0.34821100  0.01973500  1
  C  C12  1  0.30286900  0.83776900  0.39567100  1
  C  C13  1  0.51193100  0.51193100  0.66851000  1
  C  C14  1  0.66570500  0.66570500  0.89207800  1
  C  C15  1  0.99701100  0.99701100  0.68728800  1
  C  C16  1  0.99633400  0.99633400  0.19118500  1
  C  C17  1  0.83776900  0.30286900  0.39567100  1
  C  C18  1  0.51052000  0.96018700  0.64778500  1
  C  C19  1  0.96018700  0.51052000  0.64778500  1
  C  C20  1  0.15206000  0.15206000  0.89269300  1
  C  C21  1  0.84408000  0.84408000  0.40115600  1
  C  C22  1  0.03530100  0.49354900  0.16932900  1
  C  C23  1  0.49354900  0.03530100  0.16932900  1
  C  C24  1  0.33497700  0.33497700  0.38805600  1
  C  C25  1  0.17587000  0.68402100  0.91287700  1
  C  C26  1  0.47989400  0.47989400  0.16109400  1
  C  C27  1  0.68402100  0.17587000  0.91287700  1
