# generated using pymatgen
data_CuNi3C32
_symmetry_space_group_name_H-M   'P 1'
_cell_length_a   8.68598980
_cell_length_b   8.68598980
_cell_length_c   8.68599022
_cell_angle_alpha   60.04383919
_cell_angle_beta   60.04383919
_cell_angle_gamma   60.04383342
_symmetry_Int_Tables_number   1
_chemical_formula_structural   CuNi3C32
_chemical_formula_sum   'Cu1 Ni3 C32'
_cell_volume   463.84649608
_cell_formula_units_Z   1
loop_
 _symmetry_equiv_pos_site_id
 _symmetry_equiv_pos_as_xyz
  1  'x, y, z'
loop_
 _atom_site_type_symbol
 _atom_site_label
 _atom_site_symmetry_multiplicity
 _atom_site_fract_x
 _atom_site_fract_y
 _atom_site_fract_z
 _atom_site_occupancy
  C  C0  1  0.99546900  0.99546900  0.99546900  1
  C  C1  1  0.49941400  0.49941400  0.49941400  1
  Ni  Ni2  1  0.64472100  0.64472100  0.64472100  1
  Ni  Ni3  1  0.85378700  0.85378700  0.85378700  1
  Ni  Ni4  1  0.35533100  0.35533100  0.35533100  1
  C  C5  1  0.95562400  0.25329900  0.54719400  1
  C  C6  1  0.54719400  0.95562400  0.25329900  1
  C  C7  1  0.25329900  0.54719400  0.95562400  1
  C  C8  1  0.74539000  0.46225000  0.04294300  1
  C  C9  1  0.46225000  0.04294300  0.74539000  1
  C  C10  1  0.04294300  0.74539000  0.46225000  1
  Cu  Cu11  1  0.14367800  0.14367800  0.14367800  1
  C  C12  1  0.50243000  0.11255700  0.31508300  1
  C  C13  1  0.31508300  0.50243000  0.11255700  1
  C  C14  1  0.11255700  0.31508300  0.50243000  1
  C  C15  1  0.94110500  0.08705000  0.73535500  1
  C  C16  1  0.99910900  0.18488500  0.38721100  1
  C  C17  1  0.76379900  0.41349900  0.55371500  1
  C  C18  1  0.73535500  0.94110500  0.08705000  1
  C  C19  1  0.55371500  0.76379900  0.41349900  1
  C  C20  1  0.81310500  0.61271700  0.00428300  1
  C  C21  1  0.41349900  0.55371500  0.76379900  1
  C  C22  1  0.91275000  0.26248400  0.06503900  1
  C  C23  1  0.61271700  0.00428300  0.81310500  1
  C  C24  1  0.38721100  0.99910900  0.18488500  1
  C  C25  1  0.08705000  0.73535500  0.94110500  1
  C  C26  1  0.58835900  0.43839200  0.23769800  1
  C  C27  1  0.18488500  0.38721100  0.99910900  1
  C  C28  1  0.43839200  0.23769800  0.58835900  1
  C  C29  1  0.26248400  0.06503900  0.91275000  1
  C  C30  1  0.23769800  0.58835900  0.43839200  1
  C  C31  1  0.00428300  0.81310500  0.61271700  1
  C  C32  1  0.06503900  0.91275000  0.26248400  1
  C  C33  1  0.88335000  0.69625500  0.49065800  1
  C  C34  1  0.69625500  0.49065800  0.88335000  1
  C  C35  1  0.49065800  0.88335000  0.69625500  1
