# generated using pymatgen
data_CuNiC24
_symmetry_space_group_name_H-M   'P 1'
_cell_length_a   7.65827259
_cell_length_b   10.09558719
_cell_length_c   7.70939055
_cell_angle_alpha   90.44447960
_cell_angle_beta   77.91303968
_cell_angle_gamma   89.50305504
_symmetry_Int_Tables_number   1
_chemical_formula_structural   CuNiC24
_chemical_formula_sum   'Cu2 Ni2 C48'
_cell_volume   582.78593636
_cell_formula_units_Z   2
loop_
 _symmetry_equiv_pos_site_id
 _symmetry_equiv_pos_as_xyz
  1  'x, y, z'
loop_
 _atom_site_type_symbol
 _atom_site_label
 _atom_site_symmetry_multiplicity
 _atom_site_fract_x
 _atom_site_fract_y
 _atom_site_fract_z
 _atom_site_occupancy
  C  C0  1  0.26840500  0.00296600  0.26517600  1
  C  C1  1  0.76842000  0.00296300  0.76519900  1
  C  C2  1  0.72904000  0.50521700  0.23740700  1
  C  C3  1  0.22905500  0.50521400  0.73741400  1
  C  C4  1  0.38838600  0.72003200  0.36136000  1
  C  C5  1  0.88834300  0.72003700  0.86135800  1
  C  C6  1  0.61284100  0.22330100  0.13686200  1
  C  C7  1  0.11282800  0.22332900  0.63685000  1
  Ni  Ni8  1  0.90133500  0.78267400  0.34769900  1
  Ni  Ni9  1  0.40129500  0.78272700  0.84761400  1
  Cu  Cu10  1  0.11079300  0.27706200  0.13884200  1
  Cu  Cu11  1  0.61083000  0.27707100  0.63886200  1
  C  C12  1  0.16943800  0.60035400  0.08084000  1
  C  C13  1  0.66943200  0.60036300  0.58084800  1
  C  C14  1  0.33355300  0.09640100  0.91671500  1
  C  C15  1  0.83353700  0.09639100  0.41672600  1
  C  C16  1  0.66045400  0.90396100  0.08842700  1
  C  C17  1  0.16045200  0.90396800  0.58844000  1
  C  C18  1  0.83703300  0.40285900  0.91396600  1
  C  C19  1  0.33703800  0.40285700  0.41396500  1
  C  C20  1  0.20309800  0.45000800  0.04661000  1
  C  C21  1  0.70308100  0.45001200  0.54665100  1
  C  C22  1  0.13762900  0.66153800  0.90350400  1
  C  C23  1  0.63763600  0.66153100  0.40348100  1
  C  C24  1  0.33465100  0.67342800  0.11568500  1
  C  C25  1  0.83467000  0.67341900  0.61570100  1
  C  C26  1  0.50041300  0.38989000  0.26305500  1
  C  C27  1  0.00039800  0.38989600  0.76305000  1
  C  C28  1  0.49793000  0.89080100  0.23876000  1
  C  C29  1  0.99792800  0.89078700  0.73876700  1
  C  C30  1  0.16452000  0.17301800  0.88855300  1
  C  C31  1  0.66450200  0.17301100  0.38857100  1
  C  C32  1  0.35768400  0.16154200  0.09751700  1
  C  C33  1  0.85767200  0.16153100  0.59753800  1
  C  C34  1  0.29498800  0.94731100  0.95525600  1
  C  C35  1  0.79499500  0.94730500  0.45525300  1
  C  C36  1  0.70942800  0.04702600  0.03669300  1
  C  C37  1  0.20939500  0.04703500  0.53668000  1
  C  C38  1  0.63595000  0.83325100  0.90866500  1
  C  C39  1  0.13598500  0.83325100  0.40865600  1
  C  C40  1  0.82812700  0.82424500  0.12031300  1
  C  C41  1  0.32813400  0.82422700  0.62032900  1
  C  C42  1  0.49672300  0.11398000  0.76527100  1
  C  C43  1  0.99670700  0.11396500  0.26528600  1
  C  C44  1  0.50298300  0.61903200  0.73612700  1
  C  C45  1  0.00298900  0.61905300  0.23611600  1
  C  C46  1  0.67206700  0.32309000  0.87692500  1
  C  C47  1  0.17207200  0.32309700  0.37690200  1
  C  C48  1  0.86666200  0.33090300  0.09104000  1
  C  C49  1  0.36665000  0.33090600  0.59104400  1
  C  C50  1  0.78591200  0.54608300  0.96871700  1
  C  C51  1  0.28591400  0.54608500  0.46871400  1
