# generated using pymatgen
data_CuNiC18
_symmetry_space_group_name_H-M   'P 1'
_cell_length_a   10.22740220
_cell_length_b   10.22740220
_cell_length_c   10.22740179
_cell_angle_alpha   109.29413827
_cell_angle_beta   109.29413827
_cell_angle_gamma   109.29413680
_symmetry_Int_Tables_number   1
_chemical_formula_structural   CuNiC18
_chemical_formula_sum   'Cu4 Ni4 C72'
_cell_volume   828.87519015
_cell_formula_units_Z   4
loop_
 _symmetry_equiv_pos_site_id
 _symmetry_equiv_pos_as_xyz
  1  'x, y, z'
loop_
 _atom_site_type_symbol
 _atom_site_label
 _atom_site_symmetry_multiplicity
 _atom_site_fract_x
 _atom_site_fract_y
 _atom_site_fract_z
 _atom_site_occupancy
  C  C0  1  0.62437300  0.87300900  0.24962600  1
  C  C1  1  0.37976400  0.25626800  0.12860900  1
  C  C2  1  0.75037400  0.37562700  0.12699100  1
  C  C3  1  0.87300900  0.24962600  0.62437300  1
  C  C4  1  0.25626800  0.12860900  0.37976400  1
  C  C5  1  0.12860900  0.37976400  0.25626800  1
  C  C6  1  0.87139100  0.62023600  0.74373200  1
  C  C7  1  0.74373200  0.87139100  0.62023600  1
  C  C8  1  0.12699100  0.75037400  0.37562700  1
  C  C9  1  0.24962600  0.62437300  0.87300900  1
  C  C10  1  0.62023600  0.74373200  0.87139100  1
  C  C11  1  0.37562700  0.12699100  0.75037400  1
  Ni  Ni12  1  0.50000000  0.50000000  0.00000000  1
  Ni  Ni13  1  0.00000000  0.50000000  0.50000000  1
  Ni  Ni14  1  0.50000000  0.50000000  0.50000000  1
  Ni  Ni15  1  0.50000000  0.00000000  0.50000000  1
  Cu  Cu16  1  0.50000000  0.00000000  0.00000000  1
  Cu  Cu17  1  0.00000000  0.00000000  0.00000000  1
  Cu  Cu18  1  0.00000000  0.50000000  0.00000000  1
  Cu  Cu19  1  0.00000000  0.00000000  0.50000000  1
  C  C20  1  0.24477500  0.87203800  0.12085400  1
  C  C21  1  0.87914600  0.75522500  0.12796200  1
  C  C22  1  0.62368800  0.24636400  0.37284600  1
  C  C23  1  0.87203800  0.12085400  0.24477500  1
  C  C24  1  0.37284600  0.62368800  0.24636400  1
  C  C25  1  0.75363600  0.62715400  0.37631200  1
  C  C26  1  0.24636400  0.37284600  0.62368800  1
  C  C27  1  0.12796200  0.87914600  0.75522500  1
  C  C28  1  0.62715400  0.37631200  0.75363600  1
  C  C29  1  0.37631200  0.75363600  0.62715400  1
  C  C30  1  0.12085400  0.24477500  0.87203800  1
  C  C31  1  0.75522500  0.12796200  0.87914600  1
  C  C32  1  0.40979200  0.61882500  0.10732000  1
  C  C33  1  0.19941000  0.00334900  0.10809700  1
  C  C34  1  0.10809700  0.19941000  0.00334900  1
  C  C35  1  0.38611300  0.88544000  0.08872600  1
  C  C36  1  0.70839500  0.71620000  0.09126600  1
  C  C37  1  0.70053200  0.98957300  0.10941900  1
  C  C38  1  0.59478000  0.20667100  0.20190600  1
  C  C39  1  0.61882500  0.10732000  0.40979200  1
  C  C40  1  0.49039400  0.28251700  0.37808700  1
  C  C41  1  0.37808700  0.49039400  0.28251700  1
  C  C42  1  0.01042700  0.89058100  0.29946800  1
  C  C43  1  0.89058100  0.29946800  0.01042700  1
  C  C44  1  0.61455200  0.49727600  0.20347000  1
  C  C45  1  0.00334900  0.10809700  0.19941000  1
  C  C46  1  0.88544000  0.08872600  0.38611300  1
  C  C47  1  0.90873400  0.29160500  0.28380000  1
  C  C48  1  0.28380000  0.90873400  0.29160500  1
  C  C49  1  0.91127400  0.61388700  0.11456000  1
  C  C50  1  0.79653000  0.38544800  0.50272400  1
  C  C51  1  0.50272400  0.79653000  0.38544800  1
  C  C52  1  0.71748300  0.62191300  0.50960600  1
  C  C53  1  0.89268000  0.59020800  0.38117500  1
  C  C54  1  0.20667100  0.20190600  0.59478000  1
  C  C55  1  0.20190600  0.59478000  0.20667100  1
  C  C56  1  0.79809400  0.40522000  0.79332900  1
  C  C57  1  0.79332900  0.79809400  0.40522000  1
  C  C58  1  0.10732000  0.40979200  0.61882500  1
  C  C59  1  0.28251700  0.37808700  0.49039400  1
  C  C60  1  0.49727600  0.20347000  0.61455200  1
  C  C61  1  0.20347000  0.61455200  0.49727600  1
  C  C62  1  0.08872600  0.38611300  0.88544000  1
  C  C63  1  0.71620000  0.09126600  0.70839500  1
  C  C64  1  0.09126600  0.70839500  0.71620000  1
  C  C65  1  0.11456000  0.91127400  0.61388700  1
  C  C66  1  0.99665100  0.89190300  0.80059000  1
  C  C67  1  0.38544800  0.50272400  0.79653000  1
  C  C68  1  0.10941900  0.70053200  0.98957300  1
  C  C69  1  0.98957300  0.10941900  0.70053200  1
  C  C70  1  0.62191300  0.50960600  0.71748300  1
  C  C71  1  0.50960600  0.71748300  0.62191300  1
  C  C72  1  0.38117500  0.89268000  0.59020800  1
  C  C73  1  0.40522000  0.79332900  0.79809400  1
  C  C74  1  0.29946800  0.01042700  0.89058100  1
  C  C75  1  0.29160500  0.28380000  0.90873400  1
  C  C76  1  0.61388700  0.11456000  0.91127400  1
  C  C77  1  0.89190300  0.80059000  0.99665100  1
  C  C78  1  0.80059000  0.99665100  0.89190300  1
  C  C79  1  0.59020800  0.38117500  0.89268000  1
