# generated using pymatgen
data_CuNi3C10
_symmetry_space_group_name_H-M   'P 1'
_cell_length_a   6.05120949
_cell_length_b   6.05120949
_cell_length_c   9.89045000
_cell_angle_alpha   90.00000000
_cell_angle_beta   90.00000000
_cell_angle_gamma   119.99999447
_symmetry_Int_Tables_number   1
_chemical_formula_structural   CuNi3C10
_chemical_formula_sum   'Cu2 Ni6 C20'
_cell_volume   313.63973975
_cell_formula_units_Z   2
loop_
 _symmetry_equiv_pos_site_id
 _symmetry_equiv_pos_as_xyz
  1  'x, y, z'
loop_
 _atom_site_type_symbol
 _atom_site_label
 _atom_site_symmetry_multiplicity
 _atom_site_fract_x
 _atom_site_fract_y
 _atom_site_fract_z
 _atom_site_occupancy
  C  C0  1  0.33333300  0.66666700  0.90645600  1
  C  C1  1  0.00000000  0.00000000  0.98530900  1
  C  C2  1  0.00000000  0.00000000  0.48530900  1
  C  C3  1  0.66666700  0.33333300  0.40645600  1
  Ni  Ni4  1  0.17037100  0.82962900  0.21332800  1
  Ni  Ni5  1  0.17037100  0.34074200  0.21332800  1
  Ni  Ni6  1  0.65925800  0.82962900  0.21332800  1
  Ni  Ni7  1  0.34074200  0.17037100  0.71332800  1
  Ni  Ni8  1  0.82962900  0.65925800  0.71332800  1
  Ni  Ni9  1  0.82962900  0.17037100  0.71332800  1
  Cu  Cu10  1  0.33333300  0.66666700  0.48597300  1
  Cu  Cu11  1  0.66666700  0.33333300  0.98597300  1
  C  C12  1  0.17348000  0.82652000  0.58612600  1
  C  C13  1  0.03955100  0.51977500  0.35593900  1
  C  C14  1  0.33333300  0.66666700  0.11473300  1
  C  C15  1  0.00000000  0.00000000  0.29528900  1
  C  C16  1  0.00000000  0.00000000  0.79528900  1
  C  C17  1  0.17348000  0.34696000  0.58612600  1
  C  C18  1  0.48022500  0.96044900  0.35593900  1
  C  C19  1  0.48022500  0.51977500  0.35593900  1
  C  C20  1  0.34696000  0.17348000  0.08612600  1
  C  C21  1  0.65304000  0.82652000  0.58612600  1
  C  C22  1  0.51977500  0.48022500  0.85593900  1
  C  C23  1  0.51977500  0.03955100  0.85593900  1
  C  C24  1  0.66666700  0.33333300  0.61473300  1
  C  C25  1  0.82652000  0.65304000  0.08612600  1
  C  C26  1  0.96044900  0.48022500  0.85593900  1
  C  C27  1  0.82652000  0.17348000  0.08612600  1
