# generated using pymatgen
data_CuNi3C29
_symmetry_space_group_name_H-M   'P 1'
_cell_length_a   9.17870709
_cell_length_b   9.17870709
_cell_length_c   11.79944100
_cell_angle_alpha   90.00000000
_cell_angle_beta   90.00000000
_cell_angle_gamma   120.13423181
_symmetry_Int_Tables_number   1
_chemical_formula_structural   CuNi3C29
_chemical_formula_sum   'Cu2 Ni6 C58'
_cell_volume   859.73788704
_cell_formula_units_Z   2
loop_
 _symmetry_equiv_pos_site_id
 _symmetry_equiv_pos_as_xyz
  1  'x, y, z'
loop_
 _atom_site_type_symbol
 _atom_site_label
 _atom_site_symmetry_multiplicity
 _atom_site_fract_x
 _atom_site_fract_y
 _atom_site_fract_z
 _atom_site_occupancy
  Ni  Ni0  1  0.40472400  0.99847200  0.74990000  1
  Ni  Ni1  1  0.59527600  0.00152800  0.24990000  1
  Ni  Ni2  1  0.99847200  0.40472400  0.74990000  1
  Ni  Ni3  1  0.00152800  0.59527600  0.24990000  1
  Ni  Ni4  1  0.40160400  0.40160400  0.25181700  1
  Ni  Ni5  1  0.59839600  0.59839600  0.75181700  1
  Cu  Cu6  1  0.99694700  0.99694700  0.75478800  1
  Cu  Cu7  1  0.00305300  0.00305300  0.25478800  1
  C  C8  1  0.24873800  0.99193300  0.40412800  1
  C  C9  1  0.25375500  0.00350000  0.08739100  1
  C  C10  1  0.74624500  0.99650000  0.58739100  1
  C  C11  1  0.75126200  0.00806700  0.90412800  1
  C  C12  1  0.99193300  0.24873800  0.40412800  1
  C  C13  1  0.00350000  0.25375500  0.08739100  1
  C  C14  1  0.25316300  0.25316300  0.91288100  1
  C  C15  1  0.00806700  0.75126200  0.90412800  1
  C  C16  1  0.99650000  0.74624500  0.58739100  1
  C  C17  1  0.74683700  0.74683700  0.41288100  1
  C  C18  1  0.66790400  0.33459500  0.00020600  1
  C  C19  1  0.66540500  0.33209600  0.50020600  1
  C  C20  1  0.24284700  0.24284700  0.58638800  1
  C  C21  1  0.33459500  0.66790400  0.00020600  1
  C  C22  1  0.33209600  0.66540500  0.50020600  1
  C  C23  1  0.75715300  0.75715300  0.08638800  1
  C  C24  1  0.20488600  0.00461400  0.57418700  1
  C  C25  1  0.20324900  0.99719000  0.92735500  1
  C  C26  1  0.20575500  0.99994900  0.24933100  1
  C  C27  1  0.48484800  0.16791900  0.10239200  1
  C  C28  1  0.48051300  0.16656700  0.40076500  1
  C  C29  1  0.79424500  0.00005100  0.74933100  1
  C  C30  1  0.48366000  0.31722400  0.90021100  1
  C  C31  1  0.48831800  0.31816200  0.60890000  1
  C  C32  1  0.79675100  0.00281000  0.42735500  1
  C  C33  1  0.79511400  0.99538600  0.07418700  1
  C  C34  1  0.68388000  0.17101500  0.89459400  1
  C  C35  1  0.68816200  0.16839900  0.60028500  1
  C  C36  1  0.82898500  0.31612000  0.39459400  1
  C  C37  1  0.83160100  0.31183800  0.10028500  1
  C  C38  1  0.00461400  0.20488600  0.57418700  1
  C  C39  1  0.99719000  0.20324900  0.92735500  1
  C  C40  1  0.68277600  0.51634000  0.40021100  1
  C  C41  1  0.68183800  0.51168200  0.10890000  1
  C  C42  1  0.99994900  0.20575500  0.24933100  1
  C  C43  1  0.83208100  0.51515200  0.60239200  1
  C  C44  1  0.83343300  0.51948700  0.90076500  1
  C  C45  1  0.20118500  0.20118500  0.42005800  1
  C  C46  1  0.20413000  0.20413000  0.07264500  1
  C  C47  1  0.20242500  0.20242500  0.75214100  1
  C  C48  1  0.16791900  0.48484800  0.10239200  1
  C  C49  1  0.16656700  0.48051300  0.40076500  1
  C  C50  1  0.00005100  0.79424500  0.74933100  1
  C  C51  1  0.31722400  0.48366000  0.90021100  1
  C  C52  1  0.31816200  0.48831800  0.60890000  1
  C  C53  1  0.00281000  0.79675100  0.42735500  1
  C  C54  1  0.99538600  0.79511400  0.07418700  1
  C  C55  1  0.17101500  0.68388000  0.89459400  1
  C  C56  1  0.16839900  0.68816200  0.60028500  1
  C  C57  1  0.31612000  0.82898500  0.39459400  1
  C  C58  1  0.31183800  0.83160100  0.10028500  1
  C  C59  1  0.51634000  0.68277600  0.40021100  1
  C  C60  1  0.51168200  0.68183800  0.10890000  1
  C  C61  1  0.51515200  0.83208000  0.60239200  1
  C  C62  1  0.51948700  0.83343300  0.90076500  1
  C  C63  1  0.79757500  0.79757500  0.25214100  1
  C  C64  1  0.79587000  0.79587000  0.57264500  1
  C  C65  1  0.79881500  0.79881500  0.92005800  1
