# generated using pymatgen
data_Cu3Ni2C11
_symmetry_space_group_name_H-M   'P 1'
_cell_length_a   7.32447000
_cell_length_b   10.65770200
_cell_length_c   12.39328977
_cell_angle_alpha   68.47111259
_cell_angle_beta   90.00000000
_cell_angle_gamma   90.00000000
_symmetry_Int_Tables_number   1
_chemical_formula_structural   Cu3Ni2C11
_chemical_formula_sum   'Cu12 Ni8 C44'
_cell_volume   899.94914393
_cell_formula_units_Z   4
loop_
 _symmetry_equiv_pos_site_id
 _symmetry_equiv_pos_as_xyz
  1  'x, y, z'
loop_
 _atom_site_type_symbol
 _atom_site_label
 _atom_site_symmetry_multiplicity
 _atom_site_fract_x
 _atom_site_fract_y
 _atom_site_fract_z
 _atom_site_occupancy
  C  C0  1  0.04048900  0.95330400  0.63500400  1
  C  C1  1  0.45951100  0.95330400  0.13500400  1
  C  C2  1  0.92489200  0.53567600  0.65537800  1
  C  C3  1  0.42489200  0.46432400  0.84462200  1
  C  C4  1  0.57510800  0.53567600  0.15537800  1
  C  C5  1  0.07510800  0.46432400  0.34462200  1
  C  C6  1  0.54048900  0.04669600  0.86499600  1
  C  C7  1  0.95951100  0.04669600  0.36499600  1
  Ni  Ni8  1  0.10326000  0.94031500  0.92328600  1
  Ni  Ni9  1  0.39674000  0.94031500  0.42328600  1
  Ni  Ni10  1  0.36352700  0.56925000  0.56149300  1
  Ni  Ni11  1  0.86352700  0.43075000  0.93850700  1
  Ni  Ni12  1  0.13647300  0.56925000  0.06149300  1
  Ni  Ni13  1  0.63647300  0.43075000  0.43850700  1
  Ni  Ni14  1  0.60326000  0.05968500  0.57671400  1
  Ni  Ni15  1  0.89674000  0.05968500  0.07671400  1
  Cu  Cu16  1  0.45713500  0.76888400  0.93687300  1
  Cu  Cu17  1  0.84394300  0.76078000  0.85351400  1
  Cu  Cu18  1  0.52544600  0.74183800  0.70530300  1
  Cu  Cu19  1  0.04286500  0.76888400  0.43687300  1
  Cu  Cu20  1  0.65605700  0.76078000  0.35351400  1
  Cu  Cu21  1  0.97455400  0.74183800  0.20530300  1
  Cu  Cu22  1  0.02544600  0.25816200  0.79469700  1
  Cu  Cu23  1  0.34394300  0.23922000  0.64648600  1
  Cu  Cu24  1  0.95713500  0.23111600  0.56312700  1
  Cu  Cu25  1  0.47455400  0.25816200  0.29469700  1
  Cu  Cu26  1  0.15605700  0.23922000  0.14648600  1
  Cu  Cu27  1  0.54286500  0.23111600  0.06312700  1
  C  C28  1  0.36910100  0.90137200  0.95369900  1
  C  C29  1  0.98623700  0.88515300  0.80192600  1
  C  C30  1  0.49462700  0.87563100  0.58987700  1
  C  C31  1  0.67926300  0.80187500  0.92733700  1
  C  C32  1  0.13089900  0.90137200  0.45369900  1
  C  C33  1  0.40220500  0.75578900  0.81224400  1
  C  C34  1  0.74465500  0.73444300  0.74313200  1
  C  C35  1  0.51376300  0.88515300  0.30192600  1
  C  C36  1  0.40197100  0.62657200  0.03969500  1
  C  C37  1  0.00537300  0.87563100  0.08987700  1
  C  C38  1  0.93293600  0.61909100  0.93853400  1
  C  C39  1  0.82073700  0.80187500  0.42733700  1
  C  C40  1  0.09779500  0.75578900  0.31224400  1
  C  C41  1  0.47271700  0.59778700  0.69665700  1
  C  C42  1  0.75534500  0.73444300  0.24313200  1
  C  C43  1  0.09802900  0.62657200  0.53969500  1
  C  C44  1  0.56706400  0.61909100  0.43853400  1
  C  C45  1  0.02728300  0.59778700  0.19665700  1
  C  C46  1  0.97271700  0.40221300  0.80334300  1
  C  C47  1  0.43293600  0.38090900  0.56146600  1
  C  C48  1  0.90197100  0.37342800  0.46030500  1
  C  C49  1  0.24465500  0.26555700  0.75686800  1
  C  C50  1  0.52728300  0.40221300  0.30334300  1
  C  C51  1  0.90220500  0.24421100  0.68775600  1
  C  C52  1  0.17926300  0.19812500  0.57266300  1
  C  C53  1  0.06706400  0.38090900  0.06146600  1
  C  C54  1  0.99462700  0.12436900  0.91012300  1
  C  C55  1  0.59802900  0.37342800  0.96030500  1
  C  C56  1  0.48623700  0.11484700  0.69807400  1
  C  C57  1  0.25534500  0.26555700  0.25686800  1
  C  C58  1  0.59779500  0.24421100  0.18775600  1
  C  C59  1  0.86910100  0.09862800  0.54630100  1
  C  C60  1  0.32073700  0.19812500  0.07266300  1
  C  C61  1  0.50537300  0.12436900  0.41012300  1
  C  C62  1  0.01376300  0.11484700  0.19807400  1
  C  C63  1  0.63089900  0.09862800  0.04630100  1
