# generated using pymatgen
data_Cu2Ni3C23
_symmetry_space_group_name_H-M   'P 1'
_cell_length_a   6.04102646
_cell_length_b   6.04102646
_cell_length_c   9.81999270
_cell_angle_alpha   88.05579032
_cell_angle_beta   88.05579032
_cell_angle_gamma   59.00634759
_symmetry_Int_Tables_number   1
_chemical_formula_structural   Cu2Ni3C23
_chemical_formula_sum   'Cu2 Ni3 C23'
_cell_volume   306.97070419
_cell_formula_units_Z   1
loop_
 _symmetry_equiv_pos_site_id
 _symmetry_equiv_pos_as_xyz
  1  'x, y, z'
loop_
 _atom_site_type_symbol
 _atom_site_label
 _atom_site_symmetry_multiplicity
 _atom_site_fract_x
 _atom_site_fract_y
 _atom_site_fract_z
 _atom_site_occupancy
  C  C0  1  0.66284900  0.66284900  0.09633300  1
  C  C1  1  0.99589600  0.99589600  0.01014000  1
  C  C2  1  0.00177100  0.00177100  0.51087400  1
  C  C3  1  0.33530900  0.33530900  0.59763900  1
  Ni  Ni4  1  0.82974700  0.82974700  0.78856600  1
  Ni  Ni5  1  0.17020900  0.66158600  0.28568900  1
  Ni  Ni6  1  0.66158600  0.17020900  0.28568900  1
  Cu  Cu7  1  0.66812000  0.66812000  0.50833200  1
  Cu  Cu8  1  0.32131000  0.32131000  0.00614800  1
  C  C9  1  0.34068500  0.83092100  0.78220000  1
  C  C10  1  0.83092100  0.34068500  0.78220000  1
  C  C11  1  0.17113200  0.17113200  0.28255900  1
  C  C12  1  0.34304800  0.84569500  0.41218600  1
  C  C13  1  0.51990100  0.51990100  0.65653200  1
  C  C14  1  0.66831500  0.66831500  0.88891000  1
  C  C15  1  0.99534800  0.99534800  0.69775500  1
  C  C16  1  0.00139200  0.00139200  0.19721200  1
  C  C17  1  0.84569500  0.34304800  0.41218600  1
  C  C18  1  0.51497600  0.96514600  0.65462500  1
  C  C19  1  0.96514600  0.51497600  0.65462500  1
  C  C20  1  0.16532400  0.16532400  0.90297000  1
  C  C21  1  0.84091900  0.84091900  0.40652300  1
  C  C22  1  0.03159300  0.47289200  0.15017300  1
  C  C23  1  0.47289200  0.03159300  0.15017300  1
  C  C24  1  0.33498900  0.33498900  0.38690400  1
  C  C25  1  0.17335700  0.66413000  0.91150000  1
  C  C26  1  0.47821900  0.47821900  0.16218200  1
  C  C27  1  0.66413000  0.17335700  0.91150000  1
