# generated using pymatgen
data_CuNiC
_symmetry_space_group_name_H-M   'P 1'
_cell_length_a   3.08528500
_cell_length_b   9.46383000
_cell_length_c   14.25668376
_cell_angle_alpha   89.95318818
_cell_angle_beta   90.00000000
_cell_angle_gamma   90.00000000
_symmetry_Int_Tables_number   1
_chemical_formula_structural   CuNiC
_chemical_formula_sum   'Cu12 Ni12 C12'
_cell_volume   416.27524910
_cell_formula_units_Z   12
loop_
 _symmetry_equiv_pos_site_id
 _symmetry_equiv_pos_as_xyz
  1  'x, y, z'
loop_
 _atom_site_type_symbol
 _atom_site_label
 _atom_site_symmetry_multiplicity
 _atom_site_fract_x
 _atom_site_fract_y
 _atom_site_fract_z
 _atom_site_occupancy
  C  C0  1  0.00000000  0.98060800  0.99944100  1
  C  C1  1  0.00000000  0.99495600  0.33486900  1
  C  C2  1  0.00000000  0.98337000  0.66175200  1
  C  C3  1  0.50000000  0.74407200  0.14868400  1
  C  C4  1  0.50000000  0.77284900  0.49528400  1
  C  C5  1  0.50000000  0.77405100  0.82915100  1
  C  C6  1  0.00000000  0.48121500  0.33128600  1
  C  C7  1  0.00000000  0.49374800  0.00190900  1
  C  C8  1  0.00000000  0.48317900  0.66511100  1
  C  C9  1  0.50000000  0.23778300  0.18615900  1
  C  C10  1  0.50000000  0.27523100  0.50004900  1
  C  C11  1  0.50000000  0.27529200  0.83455100  1
  Ni  Ni12  1  0.50000000  0.91109100  0.59481700  1
  Ni  Ni13  1  0.50000000  0.90300600  0.93621300  1
  Ni  Ni14  1  0.00000000  0.85205500  0.10757300  1
  Ni  Ni15  1  0.00000000  0.84939100  0.76509700  1
  Ni  Ni16  1  0.00000000  0.85060500  0.42917700  1
  Ni  Ni17  1  0.50000000  0.58921800  0.06623400  1
  Ni  Ni18  1  0.50000000  0.40199100  0.26916700  1
  Ni  Ni19  1  0.50000000  0.39889800  0.94018900  1
  Ni  Ni20  1  0.50000000  0.41108300  0.59940600  1
  Ni  Ni21  1  0.00000000  0.34699600  0.43448300  1
  Ni  Ni22  1  0.00000000  0.34964000  0.76770000  1
  Ni  Ni23  1  0.00000000  0.13949300  0.23971300  1
  Cu  Cu24  1  0.50000000  0.89533900  0.27244400  1
  Cu  Cu25  1  0.00000000  0.65529500  0.23790400  1
  Cu  Cu26  1  0.00000000  0.65944900  0.56279100  1
  Cu  Cu27  1  0.00000000  0.65253100  0.89206200  1
  Cu  Cu28  1  0.50000000  0.60044300  0.39905400  1
  Cu  Cu29  1  0.50000000  0.60299200  0.72764600  1
  Cu  Cu30  1  0.00000000  0.33010800  0.10908200  1
  Cu  Cu31  1  0.00000000  0.15044400  0.89808800  1
  Cu  Cu32  1  0.00000000  0.15631300  0.56577500  1
  Cu  Cu33  1  0.50000000  0.10089900  0.06601000  1
  Cu  Cu34  1  0.50000000  0.09654700  0.40415900  1
  Cu  Cu35  1  0.50000000  0.09981600  0.72696500  1
