# generated using pymatgen
data_Cu2NiC3
_symmetry_space_group_name_H-M   'P 1'
_cell_length_a   4.17367400
_cell_length_b   10.50274067
_cell_length_c   6.18906794
_cell_angle_alpha   88.01138164
_cell_angle_beta   90.00001592
_cell_angle_gamma   89.99997187
_symmetry_Int_Tables_number   1
_chemical_formula_structural   Cu2NiC3
_chemical_formula_sum   'Cu8 Ni4 C12'
_cell_volume   271.13449822
_cell_formula_units_Z   4
loop_
 _symmetry_equiv_pos_site_id
 _symmetry_equiv_pos_as_xyz
  1  'x, y, z'
loop_
 _atom_site_type_symbol
 _atom_site_label
 _atom_site_symmetry_multiplicity
 _atom_site_fract_x
 _atom_site_fract_y
 _atom_site_fract_z
 _atom_site_occupancy
  C  C0  1  0.94555200  0.58233600  0.08334700  1
  C  C1  1  0.94555300  0.08233400  0.58333700  1
  C  C2  1  0.44555400  0.75053600  0.91526300  1
  C  C3  1  0.44555300  0.25053500  0.41525800  1
  C  C4  1  0.44555200  0.41766400  0.91667400  1
  C  C5  1  0.44555200  0.91766200  0.41666200  1
  C  C6  1  0.94555400  0.24946500  0.08475600  1
  C  C7  1  0.94555300  0.74946600  0.58475300  1
  C  C8  1  0.94543600  0.41642700  0.58359000  1
  C  C9  1  0.44544300  0.08353100  0.91632100  1
  C  C10  1  0.94544100  0.91643200  0.08360100  1
  C  C11  1  0.44541700  0.58360000  0.41638200  1
  Ni  Ni12  1  0.44539300  0.90578100  0.09428400  1
  Ni  Ni13  1  0.44539000  0.40577900  0.59429800  1
  Ni  Ni14  1  0.94539500  0.09421700  0.90570900  1
  Ni  Ni15  1  0.94539100  0.59422600  0.40571800  1
  Cu  Cu16  1  0.94492500  0.73904400  0.90172200  1
  Cu  Cu17  1  0.94492100  0.23904800  0.40172000  1
  Cu  Cu18  1  0.44494700  0.58142000  0.05933500  1
  Cu  Cu19  1  0.44494400  0.08141900  0.55931600  1
  Cu  Cu20  1  0.94494000  0.41858300  0.94068500  1
  Cu  Cu21  1  0.94495300  0.91857700  0.44067900  1
  Cu  Cu22  1  0.44492300  0.26096300  0.09829800  1
  Cu  Cu23  1  0.44492100  0.76095400  0.59829100  1
