# generated using pymatgen
data_Cu18Ni2C23
_symmetry_space_group_name_H-M   'P 1'
_cell_length_a   9.38909203
_cell_length_b   14.46491665
_cell_length_c   23.00913735
_cell_angle_alpha   90.00000000
_cell_angle_beta   90.00000000
_cell_angle_gamma   105.49657315
_symmetry_Int_Tables_number   1
_chemical_formula_structural   Cu18Ni2C23
_chemical_formula_sum   'Cu72 Ni8 C92'
_cell_volume   3011.32470587
_cell_formula_units_Z   4
loop_
 _symmetry_equiv_pos_site_id
 _symmetry_equiv_pos_as_xyz
  1  'x, y, z'
loop_
 _atom_site_type_symbol
 _atom_site_label
 _atom_site_symmetry_multiplicity
 _atom_site_fract_x
 _atom_site_fract_y
 _atom_site_fract_z
 _atom_site_occupancy
  C  C0  1  0.68618861  0.76566421  0.52436566  1
  C  C1  1  0.81381139  0.73433579  0.02436566  1
  C  C2  1  0.18618861  0.26566421  0.97563434  1
  C  C3  1  0.31381139  0.23433579  0.47563434  1
  C  C4  1  0.63118710  0.88669952  0.35857135  1
  C  C5  1  0.85677195  0.29916554  0.10297083  1
  C  C6  1  0.45906192  0.29927308  0.65727675  1
  C  C7  1  0.04093808  0.20072692  0.15727675  1
  C  C8  1  0.95906192  0.79927308  0.84272325  1
  C  C9  1  0.54093808  0.70072692  0.34272325  1
  C  C10  1  0.14593490  0.65110752  0.71806606  1
  C  C11  1  0.13118710  0.38669952  0.14142865  1
  C  C12  1  0.86881290  0.61330048  0.85857135  1
  C  C13  1  0.36881290  0.11330048  0.64142865  1
  C  C14  1  0.64322805  0.20083446  0.60297083  1
  C  C15  1  0.35406510  0.84889248  0.21806606  1
  C  C16  1  0.35677195  0.79916554  0.39702917  1
  C  C17  1  0.85406510  0.34889248  0.28193394  1
  C  C18  1  0.14322805  0.70083446  0.89702917  1
  C  C19  1  0.64593490  0.15110752  0.78193394  1
  Ni  Ni20  1  0.95103395  0.32474597  0.19759931  1
  Ni  Ni21  1  0.04896605  0.67525403  0.80240069  1
  Ni  Ni22  1  0.06628896  0.27393776  0.07070909  1
  Ni  Ni23  1  0.54896605  0.17525403  0.69759931  1
  Ni  Ni24  1  0.56628896  0.77393776  0.42929091  1
  Ni  Ni25  1  0.45103395  0.82474597  0.30240069  1
  Ni  Ni26  1  0.93371104  0.72606224  0.92929091  1
  Ni  Ni27  1  0.43371104  0.22606224  0.57070909  1
  Cu  Cu28  1  0.18310610  0.76151536  0.23873730  1
  Cu  Cu29  1  0.81543289  0.86447878  0.99442032  1
  Cu  Cu30  1  0.78527780  0.63078345  0.94626990  1
  Cu  Cu31  1  0.76969277  0.77704950  0.10027915  1
  Cu  Cu32  1  0.89725525  0.79452751  0.50239317  1
  Cu  Cu33  1  0.22651768  0.85603146  0.36612570  1
  Cu  Cu34  1  0.39694531  0.99589043  0.64441676  1
  Cu  Cu35  1  0.44859315  0.58544349  0.37164611  1
  Cu  Cu36  1  0.32243275  0.44422258  0.06568356  1
  Cu  Cu37  1  0.21472220  0.36921655  0.05373010  1
  Cu  Cu38  1  0.25036772  0.56629852  0.70615309  1
  Cu  Cu39  1  0.48610304  0.33951765  0.73167329  1
  Cu  Cu40  1  0.28195535  0.80987530  0.91566101  1
  Cu  Cu41  1  0.89694531  0.49589043  0.85558324  1
  Cu  Cu42  1  0.78195535  0.30987530  0.58433899  1
  Cu  Cu43  1  0.23030723  0.22295050  0.89972085  1
  Cu  Cu44  1  0.71472220  0.86921655  0.44626990  1
  Cu  Cu45  1  0.75036772  0.06629852  0.79384691  1
  Cu  Cu46  1  0.68456711  0.63552122  0.49442032  1
  Cu  Cu47  1  0.24963228  0.93370148  0.20615309  1
  Cu  Cu48  1  0.81689390  0.23848464  0.76126270  1
  Cu  Cu49  1  0.72065761  0.59702368  0.80709294  1
  Cu  Cu50  1  0.73030723  0.72295050  0.60027915  1
  Cu  Cu51  1  0.22065761  0.09702368  0.69290706  1
  Cu  Cu52  1  0.60305469  0.00410957  0.35558324  1
  Cu  Cu53  1  0.71804465  0.19012470  0.08433899  1
  Cu  Cu54  1  0.01389696  0.16048235  0.23167329  1
  Cu  Cu55  1  0.47667852  0.70926212  0.54558913  1
  Cu  Cu56  1  0.39725525  0.29452751  0.99760683  1
  Cu  Cu57  1  0.67756725  0.55577742  0.93431644  1
  Cu  Cu58  1  0.23009624  0.19835201  0.15196215  1
  Cu  Cu59  1  0.97667852  0.20926212  0.95441087  1
  Cu  Cu60  1  0.77934239  0.90297632  0.30709294  1
  Cu  Cu61  1  0.77348232  0.14396854  0.63387430  1
  Cu  Cu62  1  0.27348232  0.64396854  0.86612570  1
  Cu  Cu63  1  0.60274475  0.70547249  0.00239317  1
  Cu  Cu64  1  0.02332148  0.79073788  0.04558913  1
  Cu  Cu65  1  0.37708477  0.78169067  0.15493548  1
  Cu  Cu66  1  0.28527780  0.13078345  0.55373010  1
  Cu  Cu67  1  0.17756725  0.05577742  0.56568356  1
  Cu  Cu68  1  0.31543289  0.36447878  0.50557968  1
  Cu  Cu69  1  0.26969277  0.27704950  0.39972085  1
  Cu  Cu70  1  0.76990376  0.80164799  0.84803785  1
  Cu  Cu71  1  0.10305469  0.50410957  0.14441676  1
  Cu  Cu72  1  0.68310610  0.26151536  0.26126270  1
  Cu  Cu73  1  0.13452143  0.63545692  0.96399046  1
  Cu  Cu74  1  0.51389696  0.66048235  0.26832671  1
  Cu  Cu75  1  0.98610304  0.83951765  0.76832671  1
  Cu  Cu76  1  0.62291523  0.21830933  0.84506452  1
  Cu  Cu77  1  0.12291523  0.71830933  0.65493548  1
  Cu  Cu78  1  0.63452143  0.13545692  0.53600954  1
  Cu  Cu79  1  0.26990376  0.30164799  0.65196215  1
  Cu  Cu80  1  0.55140685  0.41455651  0.62835389  1
  Cu  Cu81  1  0.87708477  0.28169067  0.34506452  1
  Cu  Cu82  1  0.05140685  0.91455651  0.87164611  1
  Cu  Cu83  1  0.86547857  0.36454308  0.03600954  1
  Cu  Cu84  1  0.47591806  0.05768124  0.79438012  1
  Cu  Cu85  1  0.97591806  0.55768124  0.70561988  1
  Cu  Cu86  1  0.21804465  0.69012470  0.41566101  1
  Cu  Cu87  1  0.72651768  0.35603146  0.13387430  1
  Cu  Cu88  1  0.94859315  0.08544349  0.12835389  1
  Cu  Cu89  1  0.73009624  0.69835201  0.34803785  1
  Cu  Cu90  1  0.82243275  0.94422258  0.43431644  1
  Cu  Cu91  1  0.31689390  0.73848464  0.73873730  1
  Cu  Cu92  1  0.36547857  0.86454308  0.46399046  1
  Cu  Cu93  1  0.52408194  0.94231876  0.20561988  1
  Cu  Cu94  1  0.10274475  0.20547249  0.49760683  1
  Cu  Cu95  1  0.27934239  0.40297632  0.19290706  1
  Cu  Cu96  1  0.18456711  0.13552122  0.00557968  1
  Cu  Cu97  1  0.52332148  0.29073788  0.45441087  1
  Cu  Cu98  1  0.02408194  0.44231876  0.29438012  1
  Cu  Cu99  1  0.74963228  0.43370148  0.29384691  1
  C  C100  1  0.92634624  0.42404282  0.84779503  1
  C  C101  1  0.24308682  0.30212457  0.35454552  1
  C  C102  1  0.86888047  0.49671001  0.69846479  1
  C  C103  1  0.36175310  0.60626191  0.85167785  1
  C  C104  1  0.30772150  0.11864795  0.44692437  1
  C  C105  1  0.48400371  0.69511611  0.98594610  1
  C  C106  1  0.62710847  0.12181003  0.07165186  1
  C  C107  1  0.57314525  0.48847795  0.92924431  1
  C  C108  1  0.85787175  0.16780403  0.94192820  1
  C  C109  1  0.68625682  0.55975528  0.47929032  1
  C  C110  1  0.07173862  0.70908128  0.25198697  1
  C  C111  1  0.86080883  0.90868043  0.26858532  1
  C  C112  1  0.92685475  0.01152205  0.42924431  1
  C  C113  1  0.42634624  0.92404282  0.65220497  1
  C  C114  1  0.42685475  0.51152205  0.07075569  1
  C  C115  1  0.32055941  0.51289999  0.69664079  1
  C  C116  1  0.98400371  0.19511611  0.51405390  1
  C  C117  1  0.36888047  0.99671001  0.80153521  1
  C  C118  1  0.13919117  0.09131957  0.73141468  1
  C  C119  1  0.17944059  0.98710001  0.19664079  1
  C  C120  1  0.13824690  0.89373809  0.35167785  1
  C  C121  1  0.38972689  0.51242899  0.39243015  1
  C  C122  1  0.13111953  0.50328999  0.30153521  1
  C  C123  1  0.86175310  0.10626191  0.64832215  1
  C  C124  1  0.18625682  0.05975528  0.02070968  1
  C  C125  1  0.63111953  0.00328999  0.19846479  1
  C  C126  1  0.11027311  0.98757101  0.89243015  1
  C  C127  1  0.12710847  0.62181003  0.42834814  1
  C  C128  1  0.19227850  0.38135205  0.94692437  1
  C  C129  1  0.57173862  0.20908128  0.24801303  1
  C  C130  1  0.74308682  0.80212457  0.14545448  1
  C  C131  1  0.75691318  0.69787543  0.64545448  1
  C  C132  1  0.67944059  0.48710001  0.30335921  1
  C  C133  1  0.57365376  0.07595718  0.34779503  1
  C  C134  1  0.87289153  0.37818997  0.57165186  1
  C  C135  1  0.99488864  0.87005745  0.72169359  1
  C  C136  1  0.81374318  0.94024472  0.97929032  1
  C  C137  1  0.51599629  0.30488389  0.01405390  1
  C  C138  1  0.31374318  0.44024472  0.52070968  1
  C  C139  1  0.35787175  0.66780403  0.55807180  1
  C  C140  1  0.37289153  0.87818997  0.92834814  1
  C  C141  1  0.37031876  0.90194829  0.50860175  1
  C  C142  1  0.35101709  0.19530565  0.14508547  1
  C  C143  1  0.69227850  0.88135205  0.55307563  1
  C  C144  1  0.42826138  0.79091872  0.75198697  1
  C  C145  1  0.64898291  0.80469435  0.85491453  1
  C  C146  1  0.88972689  0.01242899  0.10756985  1
  C  C147  1  0.49488864  0.37005745  0.77830641  1
  C  C148  1  0.07314525  0.98847795  0.57075569  1
  C  C149  1  0.87031876  0.40194829  0.99139825  1
  C  C150  1  0.92826138  0.29091872  0.74801303  1
  C  C151  1  0.14212825  0.83219597  0.05807180  1
  C  C152  1  0.25691318  0.19787543  0.85454552  1
  C  C153  1  0.11035827  0.76074166  0.61325163  1
  C  C154  1  0.61027311  0.48757101  0.60756985  1
  C  C155  1  0.63919117  0.59131957  0.76858532  1
  C  C156  1  0.62968124  0.09805171  0.49139825  1
  C  C157  1  0.85101709  0.69530565  0.35491453  1
  C  C158  1  0.36080883  0.40868043  0.23141468  1
  C  C159  1  0.00511136  0.12994255  0.27830641  1
  C  C160  1  0.88964173  0.23925834  0.38674837  1
  C  C161  1  0.14898291  0.30469435  0.64508547  1
  C  C162  1  0.12968124  0.59805171  0.00860175  1
  C  C163  1  0.80772150  0.61864795  0.05307563  1
  C  C164  1  0.61035827  0.26074166  0.88674837  1
  C  C165  1  0.07365376  0.57595718  0.15220497  1
  C  C166  1  0.38964173  0.73925834  0.11325163  1
  C  C167  1  0.50511136  0.62994255  0.22169359  1
  C  C168  1  0.63824690  0.39373809  0.14832215  1
  C  C169  1  0.01599629  0.80488389  0.48594610  1
  C  C170  1  0.64212825  0.33219597  0.44192820  1
  C  C171  1  0.82055941  0.01289999  0.80335921  1
