# generated using pymatgen
data_CuNi2C11
_symmetry_space_group_name_H-M   'P 1'
_cell_length_a   7.18567291
_cell_length_b   7.18567291
_cell_length_c   8.01996211
_cell_angle_alpha   84.88556534
_cell_angle_beta   84.88556534
_cell_angle_gamma   44.66452571
_symmetry_Int_Tables_number   1
_chemical_formula_structural   CuNi2C11
_chemical_formula_sum   'Cu2 Ni4 C22'
_cell_volume   289.73979405
_cell_formula_units_Z   2
loop_
 _symmetry_equiv_pos_site_id
 _symmetry_equiv_pos_as_xyz
  1  'x, y, z'
loop_
 _atom_site_type_symbol
 _atom_site_label
 _atom_site_symmetry_multiplicity
 _atom_site_fract_x
 _atom_site_fract_y
 _atom_site_fract_z
 _atom_site_occupancy
  C  C0  1  0.41773200  0.73412100  0.12447500  1
  C  C1  1  0.73412100  0.41773200  0.62447500  1
  C  C2  1  0.53526400  0.88106700  0.40401400  1
  C  C3  1  0.88106700  0.53526400  0.90401400  1
  C  C4  1  0.42531900  0.13049300  0.05266600  1
  C  C5  1  0.13049300  0.42531900  0.55266600  1
  C  C6  1  0.81554900  0.19132400  0.97779300  1
  C  C7  1  0.19132400  0.81554900  0.47779300  1
  Ni  Ni8  1  0.96697900  0.30633900  0.25934200  1
  Ni  Ni9  1  0.30633900  0.96697900  0.75934200  1
  Ni  Ni10  1  0.59335500  0.25615100  0.33226100  1
  Ni  Ni11  1  0.25615100  0.59335500  0.83226100  1
  Cu  Cu12  1  0.01489800  0.69252900  0.20312800  1
  Cu  Cu13  1  0.69252900  0.01489800  0.70312800  1
  C  C14  1  0.83975600  0.21595800  0.39798800  1
  C  C15  1  0.21595800  0.83975600  0.89798800  1
  C  C16  1  0.79176600  0.42769300  0.09397100  1
  C  C17  1  0.42769300  0.79176600  0.59397100  1
  C  C18  1  0.28007800  0.04463400  0.22662000  1
  C  C19  1  0.04463400  0.28007800  0.72662000  1
  C  C20  1  0.91709200  0.53567300  0.35300300  1
  C  C21  1  0.53567300  0.91709200  0.85300300  1
  C  C22  1  0.52560000  0.14235400  0.48504500  1
  C  C23  1  0.14235400  0.52560000  0.98504500  1
  C  C24  1  0.70056500  0.08070700  0.16517400  1
  C  C25  1  0.08070700  0.70056500  0.66517400  1
  C  C26  1  0.33313500  0.57290000  0.29483900  1
  C  C27  1  0.57290000  0.33313500  0.79483900  1
