# generated using pymatgen
data_CuNiC11
_symmetry_space_group_name_H-M   'P 1'
_cell_length_a   8.28104691
_cell_length_b   8.37077386
_cell_length_c   8.67550854
_cell_angle_alpha   88.72949546
_cell_angle_beta   86.86559158
_cell_angle_gamma   103.71065347
_symmetry_Int_Tables_number   1
_chemical_formula_structural   CuNiC11
_chemical_formula_sum   'Cu4 Ni4 C44'
_cell_volume   582.98269783
_cell_formula_units_Z   4
loop_
 _symmetry_equiv_pos_site_id
 _symmetry_equiv_pos_as_xyz
  1  'x, y, z'
loop_
 _atom_site_type_symbol
 _atom_site_label
 _atom_site_symmetry_multiplicity
 _atom_site_fract_x
 _atom_site_fract_y
 _atom_site_fract_z
 _atom_site_occupancy
  C  C0  1  0.50304600  0.25464600  0.08717900  1
  C  C1  1  0.00321800  0.75471500  0.08717700  1
  C  C2  1  0.62578500  0.12222100  0.74360200  1
  C  C3  1  0.12577900  0.62223500  0.74359200  1
  C  C4  1  0.13247100  0.10359100  0.28194000  1
  C  C5  1  0.63271400  0.60351100  0.28212400  1
  C  C6  1  0.36513200  0.88392400  0.27544600  1
  C  C7  1  0.86497800  0.38384400  0.27556800  1
  C  C8  1  0.86361200  0.89329200  0.71971500  1
  C  C9  1  0.36350500  0.39346100  0.71953200  1
  C  C10  1  0.50701500  0.72363900  0.90509900  1
  C  C11  1  0.00699900  0.22363000  0.90502400  1
  C  C12  1  0.27034500  0.52183400  0.33989600  1
  C  C13  1  0.72936900  0.49010800  0.65581700  1
  C  C14  1  0.77019900  0.02203900  0.34006100  1
  C  C15  1  0.22984400  0.99002100  0.65549600  1
  Ni  Ni16  1  0.48382400  0.24161700  0.41685600  1
  Ni  Ni17  1  0.98384300  0.74154300  0.41686500  1
  Ni  Ni18  1  0.52274800  0.77226200  0.58243400  1
  Ni  Ni19  1  0.02271600  0.27227900  0.58242100  1
  Cu  Cu20  1  0.72748100  0.96855600  0.04073500  1
  Cu  Cu21  1  0.22754100  0.46844700  0.04067200  1
  Cu  Cu22  1  0.26471300  0.01605000  0.95735000  1
  Cu  Cu23  1  0.76477300  0.51615100  0.95740800  1
  C  C24  1  0.27328500  0.01989600  0.10680000  1
  C  C25  1  0.77347300  0.52003200  0.10682500  1
  C  C26  1  0.84942900  0.09197400  0.06938400  1
  C  C27  1  0.34937100  0.59196800  0.06934000  1
  C  C28  1  0.63051400  0.88979700  0.15609500  1
  C  C29  1  0.13074800  0.38950900  0.15607200  1
  C  C30  1  0.44431700  0.38238800  0.31599400  1
  C  C31  1  0.94413000  0.88219600  0.31600000  1
  C  C32  1  0.63691700  0.20005000  0.32847800  1
  C  C33  1  0.13689400  0.69999300  0.32842200  1
  C  C34  1  0.33263200  0.08735400  0.42508900  1
  C  C35  1  0.83265700  0.58718400  0.42519800  1
  C  C36  1  0.47127200  0.71530400  0.41994800  1
  C  C37  1  0.97109300  0.21530400  0.41994500  1
  C  C38  1  0.52415400  0.29756800  0.58160900  1
  C  C39  1  0.02422600  0.79754200  0.58156400  1
  C  C40  1  0.68536800  0.91227500  0.56579400  1
  C  C41  1  0.18527300  0.41235300  0.56568400  1
  C  C42  1  0.38476900  0.83291000  0.67559500  1
  C  C43  1  0.88473300  0.33287900  0.67569100  1
  C  C44  1  0.55140900  0.62735400  0.68736400  1
  C  C45  1  0.05151900  0.12739500  0.68726400  1
  C  C46  1  0.36599900  0.12524300  0.86672000  1
  C  C47  1  0.86590700  0.62533500  0.86667100  1
  C  C48  1  0.15372300  0.90409900  0.89449700  1
  C  C49  1  0.65373800  0.40411900  0.89464500  1
  C  C50  1  0.70039500  0.92219500  0.90067900  1
  C  C51  1  0.20041000  0.42216800  0.90062300  1
