# generated using pymatgen
data_CuNiC4
_symmetry_space_group_name_H-M   'P 1'
_cell_length_a   8.18658100
_cell_length_b   8.36275600
_cell_length_c   17.40271500
_cell_angle_alpha   90.00000000
_cell_angle_beta   90.00000000
_cell_angle_gamma   90.00000000
_symmetry_Int_Tables_number   1
_chemical_formula_structural   CuNiC4
_chemical_formula_sum   'Cu4 Ni4 C16'
_cell_volume   1191.43127652
_cell_formula_units_Z   4
loop_
 _symmetry_equiv_pos_site_id
 _symmetry_equiv_pos_as_xyz
  1  'x, y, z'
loop_
 _atom_site_type_symbol
 _atom_site_label
 _atom_site_symmetry_multiplicity
 _atom_site_fract_x
 _atom_site_fract_y
 _atom_site_fract_z
 _atom_site_occupancy
  Ni  Ni0  1  0.25000000  0.00000000  0.13191500  1
  Ni  Ni1  1  0.75000000  0.00000000  0.86808500  1
  Ni  Ni2  1  0.25000000  0.50000000  0.63191500  1
  Ni  Ni3  1  0.75000000  0.50000000  0.36808500  1
  Cu  Cu4  1  0.25000000  0.00000000  0.40547100  1
  Cu  Cu5  1  0.75000000  0.00000000  0.59452900  1
  Cu  Cu6  1  0.75000000  0.50000000  0.09452900  1
  Cu  Cu7  1  0.25000000  0.50000000  0.90547100  1
  C  C8  1  0.01221200  0.16305900  0.27740100  1
  C  C9  1  0.51221200  0.16305900  0.72259900  1
  C  C10  1  0.00373600  0.24625300  0.01204000  1
  C  C11  1  0.50373600  0.24625300  0.98796000  1
  C  C12  1  0.50373600  0.25374700  0.48796000  1
  C  C13  1  0.00373600  0.25374700  0.51204000  1
  C  C14  1  0.51221200  0.33694100  0.22259900  1
  C  C15  1  0.01221200  0.33694100  0.77740100  1
  C  C16  1  0.98778800  0.66305900  0.22259900  1
  C  C17  1  0.48778800  0.66305900  0.77740100  1
  C  C18  1  0.99626400  0.74625300  0.48796000  1
  C  C19  1  0.49626400  0.74625300  0.51204000  1
  C  C20  1  0.49626400  0.75374700  0.01204000  1
  C  C21  1  0.99626400  0.75374700  0.98796000  1
  C  C22  1  0.98778800  0.83694100  0.72259900  1
  C  C23  1  0.48778800  0.83694100  0.27740100  1
