# generated using pymatgen
data_Cu3NiC
_symmetry_space_group_name_H-M   'P 1'
_cell_length_a   5.77609134
_cell_length_b   7.44491817
_cell_length_c   9.39901174
_cell_angle_alpha   90.00078138
_cell_angle_beta   89.98203687
_cell_angle_gamma   105.19864794
_symmetry_Int_Tables_number   1
_chemical_formula_structural   Cu3NiC
_chemical_formula_sum   'Cu24 Ni8 C8'
_cell_volume   390.04406269
_cell_formula_units_Z   8
loop_
 _symmetry_equiv_pos_site_id
 _symmetry_equiv_pos_as_xyz
  1  'x, y, z'
loop_
 _atom_site_type_symbol
 _atom_site_label
 _atom_site_symmetry_multiplicity
 _atom_site_fract_x
 _atom_site_fract_y
 _atom_site_fract_z
 _atom_site_occupancy
  C  C0  1  0.99991100  0.00002100  0.50001000  1
  C  C1  1  0.50008100  0.49997300  0.74999100  1
  C  C2  1  0.99990900  0.00001300  0.00001200  1
  C  C3  1  0.50008400  0.49998300  0.24998100  1
  C  C4  1  0.00004400  0.50013900  0.49997800  1
  C  C5  1  0.49987100  0.99999900  0.75005100  1
  C  C6  1  0.00016700  0.50006400  0.99990300  1
  C  C7  1  0.49991500  0.99995000  0.25003500  1
  Ni  Ni8  1  0.01165000  0.74405800  0.74999000  1
  Ni  Ni9  1  0.51179100  0.24427900  0.99995800  1
  Ni  Ni10  1  0.01164500  0.74406500  0.24997900  1
  Ni  Ni11  1  0.51178900  0.24428200  0.49995400  1
  Ni  Ni12  1  0.98815700  0.25583500  0.25007100  1
  Ni  Ni13  1  0.48844100  0.75580700  0.49998100  1
  Ni  Ni14  1  0.98814700  0.25583900  0.75007100  1
  Ni  Ni15  1  0.48844000  0.75581000  0.99998900  1
  Cu  Cu16  1  0.99857100  0.26414500  0.61233500  1
  Cu  Cu17  1  0.49874700  0.76398900  0.86222000  1
  Cu  Cu18  1  0.99856800  0.26411800  0.11232300  1
  Cu  Cu19  1  0.49874900  0.76400200  0.36220300  1
  Cu  Cu20  1  0.65244700  0.38720600  0.43773500  1
  Cu  Cu21  1  0.15255500  0.88696300  0.68777600  1
  Cu  Cu22  1  0.65245100  0.38721200  0.93775100  1
  Cu  Cu23  1  0.15255500  0.88697100  0.18776500  1
  Cu  Cu24  1  0.87673600  0.61153900  0.67450700  1
  Cu  Cu25  1  0.37702300  0.11169600  0.92438700  1
  Cu  Cu26  1  0.87672500  0.61154500  0.17451300  1
  Cu  Cu27  1  0.37700500  0.11170300  0.42438100  1
  Cu  Cu28  1  0.12292700  0.38837000  0.32565100  1
  Cu  Cu29  1  0.62330400  0.88836600  0.57547200  1
  Cu  Cu30  1  0.12292200  0.38836600  0.82567200  1
  Cu  Cu31  1  0.62329400  0.88837300  0.07549400  1
  Cu  Cu32  1  0.34750500  0.61291800  0.56216200  1
  Cu  Cu33  1  0.84748600  0.11285800  0.81230300  1
  Cu  Cu34  1  0.34751700  0.61291900  0.06218300  1
  Cu  Cu35  1  0.84749400  0.11285500  0.31229900  1
  Cu  Cu36  1  0.00132400  0.73596300  0.38774500  1
  Cu  Cu37  1  0.50137100  0.23592300  0.63770200  1
  Cu  Cu38  1  0.00131600  0.73594800  0.88775100  1
  Cu  Cu39  1  0.50137000  0.23593600  0.13771600  1
