# generated using pymatgen
data_Cu(NiC7)2
_symmetry_space_group_name_H-M   'P 1'
_cell_length_a   7.85708600
_cell_length_b   13.64525000
_cell_length_c   14.51344300
_cell_angle_alpha   90.00000000
_cell_angle_beta   90.00000000
_cell_angle_gamma   90.00000000
_symmetry_Int_Tables_number   1
_chemical_formula_structural   Cu(NiC7)2
_chemical_formula_sum   'Cu8 Ni16 C112'
_cell_volume   1556.01383936
_cell_formula_units_Z   8
loop_
 _symmetry_equiv_pos_site_id
 _symmetry_equiv_pos_as_xyz
  1  'x, y, z'
loop_
 _atom_site_type_symbol
 _atom_site_label
 _atom_site_symmetry_multiplicity
 _atom_site_fract_x
 _atom_site_fract_y
 _atom_site_fract_z
 _atom_site_occupancy
  Ni  Ni0  1  0.04207600  0.50525500  0.23827600  1
  Ni  Ni1  1  0.04207600  0.99474500  0.73827600  1
  Ni  Ni2  1  0.21774500  0.25672900  0.49577500  1
  Ni  Ni3  1  0.21774500  0.24327100  0.99577500  1
  Ni  Ni4  1  0.28225500  0.75672900  0.49577500  1
  Ni  Ni5  1  0.28225500  0.74327100  0.99577500  1
  Ni  Ni6  1  0.45792400  0.00525500  0.23827600  1
  Ni  Ni7  1  0.45792400  0.49474500  0.73827600  1
  Ni  Ni8  1  0.54207600  0.50525500  0.26172400  1
  Ni  Ni9  1  0.54207600  0.99474500  0.76172400  1
  Ni  Ni10  1  0.71774500  0.25672900  0.00422500  1
  Ni  Ni11  1  0.71774500  0.24327100  0.50422500  1
  Ni  Ni12  1  0.78225500  0.75672900  0.00422500  1
  Ni  Ni13  1  0.78225500  0.74327100  0.50422500  1
  Ni  Ni14  1  0.95792400  0.00525500  0.26172400  1
  Ni  Ni15  1  0.95792400  0.49474500  0.76172400  1
  Cu  Cu16  1  0.13887400  0.87787300  0.13170100  1
  Cu  Cu17  1  0.13887400  0.62212700  0.63170100  1
  Cu  Cu18  1  0.36112600  0.12212700  0.63170100  1
  Cu  Cu19  1  0.36112600  0.37787300  0.13170100  1
  Cu  Cu20  1  0.63887400  0.87787300  0.36829900  1
  Cu  Cu21  1  0.63887400  0.62212700  0.86829900  1
  Cu  Cu22  1  0.86112600  0.37787300  0.36829900  1
  Cu  Cu23  1  0.86112600  0.12212700  0.86829900  1
  C  C24  1  0.01854000  0.74723000  0.30524600  1
  C  C25  1  0.01854000  0.75277000  0.80524600  1
  C  C26  1  0.23736700  0.00898200  0.44163600  1
  C  C27  1  0.23736700  0.49101800  0.94163600  1
  C  C28  1  0.26263300  0.50898200  0.44163600  1
  C  C29  1  0.26263300  0.99101800  0.94163600  1
  C  C30  1  0.48146000  0.24723000  0.30524600  1
  C  C31  1  0.48146000  0.25277000  0.80524600  1
  C  C32  1  0.51854000  0.75277000  0.69475400  1
  C  C33  1  0.51854000  0.74723000  0.19475400  1
  C  C34  1  0.73736700  0.00898200  0.05836400  1
  C  C35  1  0.73736700  0.49101800  0.55836400  1
  C  C36  1  0.76263300  0.50898200  0.05836400  1
  C  C37  1  0.76263300  0.99101800  0.55836400  1
  C  C38  1  0.98146000  0.24723000  0.19475400  1
  C  C39  1  0.98146000  0.25277000  0.69475400  1
  C  C40  1  0.02206100  0.71248600  0.11075100  1
  C  C41  1  0.02206100  0.78751400  0.61075100  1
  C  C42  1  0.23017400  0.06408800  0.08822100  1
  C  C43  1  0.23017400  0.43591200  0.58822100  1
  C  C44  1  0.26982600  0.56408800  0.08822100  1
  C  C45  1  0.26982600  0.93591200  0.58822100  1
  C  C46  1  0.47793900  0.21248600  0.11075100  1
  C  C47  1  0.47793900  0.28751400  0.61075100  1
  C  C48  1  0.52206100  0.71248600  0.38924900  1
  C  C49  1  0.52206100  0.78751400  0.88924900  1
  C  C50  1  0.73017400  0.06408800  0.41177900  1
  C  C51  1  0.73017400  0.43591200  0.91177900  1
  C  C52  1  0.76982600  0.56408800  0.41177900  1
  C  C53  1  0.76982600  0.93591200  0.91177900  1
  C  C54  1  0.97793900  0.21248600  0.38924900  1
  C  C55  1  0.97793900  0.28751400  0.88924900  1
  C  C56  1  0.99944200  0.85347500  0.23998600  1
  C  C57  1  0.99944200  0.64652500  0.73998600  1
  C  C58  1  0.02510700  0.65293600  0.22738800  1
  C  C59  1  0.02510700  0.84706400  0.72738800  1
  C  C60  1  0.02663200  0.75834100  0.05729200  1
  C  C61  1  0.02663200  0.74165900  0.55729200  1
  C  C62  1  0.04848800  0.50650900  0.88931000  1
  C  C63  1  0.04848800  0.99349100  0.38931000  1
  C  C64  1  0.08404800  0.50749200  0.37631700  1
  C  C65  1  0.08404800  0.99250800  0.87631700  1
  C  C66  1  0.16092700  0.24295000  0.12791200  1
  C  C67  1  0.16092700  0.25705000  0.62791200  1
  C  C68  1  0.19820700  0.75427700  0.37190100  1
  C  C69  1  0.19820700  0.74572300  0.87190100  1
  C  C70  1  0.22421300  0.99426700  0.19329500  1
  C  C71  1  0.22421300  0.50573300  0.69329500  1
  C  C72  1  0.23551900  0.09024700  0.02159300  1
  C  C73  1  0.23551900  0.40975300  0.52159300  1
  C  C74  1  0.23461700  0.39102500  0.01444300  1
  C  C75  1  0.23461700  0.10897500  0.51444300  1
  C  C76  1  0.26538300  0.89102500  0.01444300  1
  C  C77  1  0.26538300  0.60897500  0.51444300  1
  C  C78  1  0.26448100  0.59024700  0.02159300  1
  C  C79  1  0.26448100  0.90975300  0.52159300  1
  C  C80  1  0.27578700  0.49426700  0.19329500  1
  C  C81  1  0.27578700  0.00573300  0.69329500  1
  C  C82  1  0.30179300  0.25427700  0.37190100  1
  C  C83  1  0.30179300  0.24572300  0.87190100  1
  C  C84  1  0.33907300  0.74295000  0.12791200  1
  C  C85  1  0.33907300  0.75705000  0.62791200  1
  C  C86  1  0.41595200  0.00749200  0.37631700  1
  C  C87  1  0.41595200  0.49250800  0.87631700  1
  C  C88  1  0.45151200  0.00650900  0.88931000  1
  C  C89  1  0.45151200  0.49349100  0.38931000  1
  C  C90  1  0.47336800  0.25834100  0.05729200  1
  C  C91  1  0.47336800  0.24165900  0.55729200  1
  C  C92  1  0.47489300  0.15293600  0.22738800  1
  C  C93  1  0.47489300  0.34706400  0.72738800  1
  C  C94  1  0.50055800  0.14652500  0.73998600  1
  C  C95  1  0.50055800  0.35347500  0.23998600  1
  C  C96  1  0.49944200  0.64652500  0.76001400  1
  C  C97  1  0.49944200  0.85347500  0.26001400  1
  C  C98  1  0.52510700  0.65293600  0.27261200  1
  C  C99  1  0.52510700  0.84706400  0.77261200  1
  C  C100  1  0.52663200  0.75834100  0.44270800  1
  C  C101  1  0.52663200  0.74165900  0.94270800  1
  C  C102  1  0.54848800  0.50650900  0.61069000  1
  C  C103  1  0.54848800  0.99349100  0.11069000  1
  C  C104  1  0.58404800  0.50749200  0.12368300  1
  C  C105  1  0.58404800  0.99250800  0.62368300  1
  C  C106  1  0.66092700  0.24295000  0.37208800  1
  C  C107  1  0.66092700  0.25705000  0.87208800  1
  C  C108  1  0.69820600  0.75427700  0.12809900  1
  C  C109  1  0.69820600  0.74572300  0.62809900  1
  C  C110  1  0.72421300  0.99426700  0.30670500  1
  C  C111  1  0.72421300  0.50573300  0.80670500  1
  C  C112  1  0.73551900  0.09024700  0.47840700  1
  C  C113  1  0.73551900  0.40975300  0.97840700  1
  C  C114  1  0.73461700  0.39102500  0.48555700  1
  C  C115  1  0.73461700  0.10897500  0.98555700  1
  C  C116  1  0.76538300  0.89102500  0.48555700  1
  C  C117  1  0.76538300  0.60897500  0.98555700  1
  C  C118  1  0.76448100  0.59024700  0.47840700  1
  C  C119  1  0.76448100  0.90975300  0.97840700  1
  C  C120  1  0.77578700  0.49426700  0.30670500  1
  C  C121  1  0.77578700  0.00573300  0.80670500  1
  C  C122  1  0.80179400  0.25427700  0.12809900  1
  C  C123  1  0.80179400  0.24572300  0.62809900  1
  C  C124  1  0.83907300  0.74295000  0.37208800  1
  C  C125  1  0.83907300  0.75705000  0.87208800  1
  C  C126  1  0.91595200  0.00749200  0.12368300  1
  C  C127  1  0.91595200  0.49250800  0.62368300  1
  C  C128  1  0.95151200  0.49349100  0.11069000  1
  C  C129  1  0.95151200  0.00650900  0.61069000  1
  C  C130  1  0.97336800  0.25834100  0.44270800  1
  C  C131  1  0.97336800  0.24165900  0.94270800  1
  C  C132  1  0.97489300  0.15293600  0.27261200  1
  C  C133  1  0.97489300  0.34706400  0.77261200  1
  C  C134  1  0.00055800  0.35347500  0.26001400  1
  C  C135  1  0.00055800  0.14652500  0.76001400  1
