# generated using pymatgen
data_Cu9Ni6C7
_symmetry_space_group_name_H-M   'P 1'
_cell_length_a   9.95238388
_cell_length_b   18.14584971
_cell_length_c   5.09632360
_cell_angle_alpha   81.92746170
_cell_angle_beta   90.00000000
_cell_angle_gamma   90.00000000
_symmetry_Int_Tables_number   1
_chemical_formula_structural   Cu9Ni6C7
_chemical_formula_sum   'Cu36 Ni24 C28'
_cell_volume   911.24796598
_cell_formula_units_Z   4
loop_
 _symmetry_equiv_pos_site_id
 _symmetry_equiv_pos_as_xyz
  1  'x, y, z'
loop_
 _atom_site_type_symbol
 _atom_site_label
 _atom_site_symmetry_multiplicity
 _atom_site_fract_x
 _atom_site_fract_y
 _atom_site_fract_z
 _atom_site_occupancy
  C  C0  1  0.14858470  0.07161141  0.68686780  1
  C  C1  1  0.14811683  0.92913455  0.25719449  1
  C  C2  1  0.14668419  0.34780261  0.56311613  1
  C  C3  1  0.14218623  0.65364166  0.38113564  1
  C  C4  1  0.14465356  0.49179117  0.04615522  1
  C  C5  1  0.14973601  0.21032140  0.18644947  1
  C  C6  1  0.14841960  0.79116395  0.89421504  1
  C  C7  1  0.35026399  0.78967860  0.39676987  1
  C  C8  1  0.35158040  0.20883605  0.68537899  1
  C  C9  1  0.35534644  0.50820883  0.53794739  1
  C  C10  1  0.35781377  0.34635834  0.03477730  1
  C  C11  1  0.35331581  0.65219739  0.91091774  1
  C  C12  1  0.35141530  0.92838859  0.75847921  1
  C  C13  1  0.35188317  0.07086545  0.18632904  1
  C  C14  1  0.64811683  0.07086545  0.68632904  1
  C  C15  1  0.64858470  0.92838859  0.25847921  1
  C  C16  1  0.64218623  0.34635834  0.53477730  1
  C  C17  1  0.64668419  0.65219739  0.41091774  1
  C  C18  1  0.64465356  0.50820883  0.03794739  1
  C  C19  1  0.64973601  0.78967860  0.89676987  1
  C  C20  1  0.64841960  0.20883605  0.18537899  1
  C  C21  1  0.85158040  0.79116395  0.39421504  1
  C  C22  1  0.85026399  0.21032140  0.68644947  1
  C  C23  1  0.85534644  0.49179117  0.54615522  1
  C  C24  1  0.85781377  0.65364166  0.88113564  1
  C  C25  1  0.85331581  0.34780261  0.06311613  1
  C  C26  1  0.85141530  0.07161141  0.18686780  1
  C  C27  1  0.85188317  0.92913455  0.75719449  1
  Ni  Ni28  1  0.23617970  0.42830947  0.79221951  1
  Ni  Ni29  1  0.23054083  0.14231583  0.94344164  1
  Ni  Ni30  1  0.23037261  0.85652239  0.58438284  1
  Ni  Ni31  1  0.23056936  0.28244919  0.86371544  1
  Ni  Ni32  1  0.23178462  0.71212127  0.65046381  1
  Ni  Ni33  1  0.25000000  0.00000000  0.46952982  1
  Ni  Ni34  1  0.25000000  0.00000000  0.96804217  1
  Ni  Ni35  1  0.26821538  0.28787873  0.36258608  1
  Ni  Ni36  1  0.26943064  0.71755081  0.14616463  1
  Ni  Ni37  1  0.26945917  0.85768417  0.08575747  1
  Ni  Ni38  1  0.26962739  0.14347761  0.44090423  1
  Ni  Ni39  1  0.26382030  0.57169053  0.22052898  1
  Ni  Ni40  1  0.73617970  0.57169053  0.72052898  1
  Ni  Ni41  1  0.73054083  0.85768417  0.58575747  1
  Ni  Ni42  1  0.73037261  0.14347761  0.94090423  1
  Ni  Ni43  1  0.73056936  0.71755081  0.64616463  1
  Ni  Ni44  1  0.73178462  0.28787873  0.86258608  1
  Ni  Ni45  1  0.75000000  0.00000000  0.46804217  1
  Ni  Ni46  1  0.75000000  0.00000000  0.96952982  1
  Ni  Ni47  1  0.76943064  0.28244919  0.36371544  1
  Ni  Ni48  1  0.76821538  0.71212127  0.15046381  1
  Ni  Ni49  1  0.76945917  0.14231583  0.44344164  1
  Ni  Ni50  1  0.76962739  0.85652239  0.08438284  1
  Ni  Ni51  1  0.76382030  0.42830947  0.29221951  1
  Cu  Cu52  1  0.00160883  0.00197000  0.14848939  1
  Cu  Cu53  1  0.99839117  0.00197000  0.64848939  1
  Cu  Cu54  1  0.02553361  0.12608360  0.34410972  1
  Cu  Cu55  1  0.02700589  0.87853968  0.96222065  1
  Cu  Cu56  1  0.03016803  0.25663080  0.50806858  1
  Cu  Cu57  1  0.03462773  0.75245734  0.25335017  1
  Cu  Cu58  1  0.04660759  0.38482503  0.19788619  1
  Cu  Cu59  1  0.03301819  0.62890212  0.06397871  1
  Cu  Cu60  1  0.03564808  0.50416726  0.37985533  1
  Cu  Cu61  1  0.21533064  0.56957055  0.72779460  1
  Cu  Cu62  1  0.28466936  0.43042945  0.29736515  1
  Cu  Cu63  1  0.46435192  0.49583274  0.88402259  1
  Cu  Cu64  1  0.46698181  0.37109788  0.69287983  1
  Cu  Cu65  1  0.45339241  0.61517497  0.58271122  1
  Cu  Cu66  1  0.46537227  0.24754266  0.00580651  1
  Cu  Cu67  1  0.46983197  0.74336920  0.76469939  1
  Cu  Cu68  1  0.47299411  0.12146032  0.84075933  1
  Cu  Cu69  1  0.47446639  0.87391640  0.47019332  1
  Cu  Cu70  1  0.49839117  0.99803000  0.15045938  1
  Cu  Cu71  1  0.50160883  0.99803000  0.65045938  1
  Cu  Cu72  1  0.52553361  0.87391640  0.97019332  1
  Cu  Cu73  1  0.52700589  0.12146032  0.34075933  1
  Cu  Cu74  1  0.53016803  0.74336920  0.26469939  1
  Cu  Cu75  1  0.53462773  0.24754266  0.50580651  1
  Cu  Cu76  1  0.54660759  0.61517497  0.08271122  1
  Cu  Cu77  1  0.53301819  0.37109788  0.19287983  1
  Cu  Cu78  1  0.53564808  0.49583274  0.38402259  1
  Cu  Cu79  1  0.71533064  0.43042945  0.79736515  1
  Cu  Cu80  1  0.78466936  0.56957055  0.22779460  1
  Cu  Cu81  1  0.96435192  0.50416726  0.87985533  1
  Cu  Cu82  1  0.96698181  0.62890212  0.56397871  1
  Cu  Cu83  1  0.95339241  0.38482503  0.69788619  1
  Cu  Cu84  1  0.96983197  0.25663080  0.00806858  1
  Cu  Cu85  1  0.96537227  0.75245734  0.75335017  1
  Cu  Cu86  1  0.97299411  0.87853968  0.46222065  1
  Cu  Cu87  1  0.97446639  0.12608360  0.84410972  1
