# generated using pymatgen
data_Cu5Ni3C40
_symmetry_space_group_name_H-M   'P 1'
_cell_length_a   5.22860000
_cell_length_b   5.24465335
_cell_length_c   20.80277166
_cell_angle_alpha   91.66700029
_cell_angle_beta   89.38544616
_cell_angle_gamma   119.74121052
_symmetry_Int_Tables_number   1
_chemical_formula_structural   Cu5Ni3C40
_chemical_formula_sum   'Cu5 Ni3 C40'
_cell_volume   495.09993545
_cell_formula_units_Z   1
loop_
 _symmetry_equiv_pos_site_id
 _symmetry_equiv_pos_as_xyz
  1  'x, y, z'
loop_
 _atom_site_type_symbol
 _atom_site_label
 _atom_site_symmetry_multiplicity
 _atom_site_fract_x
 _atom_site_fract_y
 _atom_site_fract_z
 _atom_site_occupancy
  C  C0  1  0.01937000  0.67117000  0.33421100  1
  C  C1  1  0.97542500  0.65260300  0.08382400  1
  C  C2  1  0.01804000  0.67456800  0.83333400  1
  C  C3  1  0.97853200  0.65496800  0.58237100  1
  C  C4  1  0.01276900  0.34503900  0.20870900  1
  C  C5  1  0.98837600  0.34358700  0.45841800  1
  C  C6  1  0.01845100  0.34780900  0.70694300  1
  C  C7  1  0.98810900  0.33756000  0.95781300  1
  Ni  Ni8  1  0.66508900  0.67398400  0.94034300  1
  Ni  Ni9  1  0.32246800  0.32252900  0.06752400  1
  Ni  Ni10  1  0.32711100  0.32558800  0.56714200  1
  Cu  Cu11  1  0.65346500  0.67490400  0.43937500  1
  Cu  Cu12  1  0.68250500  0.00354100  0.31545400  1
  Cu  Cu13  1  0.68188500  0.00740200  0.81529000  1
  Cu  Cu14  1  0.32758700  0.99795200  0.19274600  1
  Cu  Cu15  1  0.33291100  0.99605800  0.69220200  1
  C  C16  1  0.65569900  0.99601700  0.06410300  1
  C  C17  1  0.65895100  0.99657000  0.56296300  1
  C  C18  1  0.66651700  0.66890700  0.18994300  1
  C  C19  1  0.67075600  0.67042600  0.68906400  1
  C  C20  1  0.33927100  0.33167200  0.31344500  1
  C  C21  1  0.33588000  0.33609400  0.81200200  1
  C  C22  1  0.33483000  0.00757900  0.43698600  1
  C  C23  1  0.33835900  0.00753900  0.93674600  1
  C  C24  1  0.68193100  0.93265400  0.20917400  1
  C  C25  1  0.68654500  0.93519900  0.70783700  1
  C  C26  1  0.67687300  0.74627900  0.04816900  1
  C  C27  1  0.38901000  0.96610100  0.08520700  1
  C  C28  1  0.68001900  0.74721300  0.54725300  1
  C  C29  1  0.39209200  0.96765500  0.58373200  1
  C  C30  1  0.39469500  0.42016800  0.17546800  1
  C  C31  1  0.08198800  0.73892400  0.43065500  1
  C  C32  1  0.39987700  0.42084100  0.67521100  1
  C  C33  1  0.08910900  0.73267800  0.93019600  1
  C  C34  1  0.92077100  0.65061700  0.18292200  1
  C  C35  1  0.92578000  0.65332500  0.68179400  1
  C  C36  1  0.08543300  0.35349400  0.30778700  1
  C  C37  1  0.08294900  0.35956800  0.80579200  1
  C  C38  1  0.90121800  0.27169900  0.05680400  1
  C  C39  1  0.60394000  0.57734900  0.33169600  1
  C  C40  1  0.90538700  0.27273100  0.55619000  1
  C  C41  1  0.60011000  0.58164400  0.83085000  1
  C  C42  1  0.61071400  0.03215600  0.42228900  1
  C  C43  1  0.61400700  0.04052100  0.92082300  1
  C  C44  1  0.32562700  0.25827100  0.45706500  1
  C  C45  1  0.31703700  0.24933900  0.95867200  1
  C  C46  1  0.32315700  0.06257000  0.29876000  1
  C  C47  1  0.31937400  0.06613800  0.79850100  1
