# generated using pymatgen
data_Cu20Ni4C29
_symmetry_space_group_name_H-M   'P 1'
_cell_length_a   6.64907200
_cell_length_b   7.59829900
_cell_length_c   20.54155365
_cell_angle_alpha   86.77746766
_cell_angle_beta   90.00000000
_cell_angle_gamma   90.00000000
_symmetry_Int_Tables_number   1
_chemical_formula_structural   Cu20Ni4C29
_chemical_formula_sum   'Cu40 Ni8 C58'
_cell_volume   1036.15189343
_cell_formula_units_Z   2
loop_
 _symmetry_equiv_pos_site_id
 _symmetry_equiv_pos_as_xyz
  1  'x, y, z'
loop_
 _atom_site_type_symbol
 _atom_site_label
 _atom_site_symmetry_multiplicity
 _atom_site_fract_x
 _atom_site_fract_y
 _atom_site_fract_z
 _atom_site_occupancy
  C  C0  1  0.51860800  0.76129100  0.94407500  1
  C  C1  1  0.98139200  0.76129100  0.44407500  1
  C  C2  1  0.01860800  0.23870900  0.55592500  1
  C  C3  1  0.48139200  0.23870900  0.05592500  1
  C  C4  1  0.50000000  0.00000000  0.50000000  1
  C  C5  1  0.00000000  0.00000000  0.00000000  1
  C  C6  1  0.44639400  0.76707900  0.76459600  1
  C  C7  1  0.05360600  0.76707900  0.26459600  1
  C  C8  1  0.94639400  0.23292100  0.73540400  1
  C  C9  1  0.55360600  0.23292100  0.23540400  1
  Ni  Ni10  1  0.72073900  0.93396300  0.64585500  1
  Ni  Ni11  1  0.77926100  0.93396300  0.14585500  1
  Ni  Ni12  1  0.67350600  0.53821200  0.65313600  1
  Ni  Ni13  1  0.17350600  0.46178800  0.84686400  1
  Ni  Ni14  1  0.82649400  0.53821200  0.15313600  1
  Ni  Ni15  1  0.32649400  0.46178800  0.34686400  1
  Ni  Ni16  1  0.22073900  0.06603700  0.85414500  1
  Ni  Ni17  1  0.27926100  0.06603700  0.35414500  1
  Cu  Cu18  1  0.32271900  0.93741200  0.61473900  1
  Cu  Cu19  1  0.17728100  0.93741200  0.11473900  1
  Cu  Cu20  1  0.06930900  0.84613900  0.70915400  1
  Cu  Cu21  1  0.84414400  0.84885100  0.80986200  1
  Cu  Cu22  1  0.20696400  0.81564400  0.56926200  1
  Cu  Cu23  1  0.43069100  0.84613900  0.20915400  1
  Cu  Cu24  1  0.65585600  0.84885100  0.30986200  1
  Cu  Cu25  1  0.29303600  0.81564400  0.06926200  1
  Cu  Cu26  1  0.00633300  0.66379800  0.95388800  1
  Cu  Cu27  1  0.56502300  0.65320000  0.52750000  1
  Cu  Cu28  1  0.82667100  0.64440400  0.80264600  1
  Cu  Cu29  1  0.49366700  0.66379800  0.45388800  1
  Cu  Cu30  1  0.09795700  0.64542700  0.73764100  1
  Cu  Cu31  1  0.93497700  0.65320000  0.02750000  1
  Cu  Cu32  1  0.67332900  0.64440400  0.30264600  1
  Cu  Cu33  1  0.40204300  0.64542700  0.23764100  1
  Cu  Cu34  1  0.07947100  0.58296700  0.61108100  1
  Cu  Cu35  1  0.29813800  0.56172900  0.58236900  1
  Cu  Cu36  1  0.42052900  0.58296700  0.11108100  1
  Cu  Cu37  1  0.79813800  0.43827100  0.91763100  1
  Cu  Cu38  1  0.20186200  0.56172900  0.08236900  1
  Cu  Cu39  1  0.57947100  0.41703300  0.88891900  1
  Cu  Cu40  1  0.70186200  0.43827100  0.41763100  1
  Cu  Cu41  1  0.92052900  0.41703300  0.38891900  1
  Cu  Cu42  1  0.59795700  0.35457300  0.76235900  1
  Cu  Cu43  1  0.32667100  0.35559600  0.69735400  1
  Cu  Cu44  1  0.06502300  0.34680000  0.97250000  1
  Cu  Cu45  1  0.90204300  0.35457300  0.26235900  1
  Cu  Cu46  1  0.50633300  0.33620200  0.54611200  1
  Cu  Cu47  1  0.17332900  0.35559600  0.19735400  1
  Cu  Cu48  1  0.43497700  0.34680000  0.47250000  1
  Cu  Cu49  1  0.99366700  0.33620200  0.04611200  1
  Cu  Cu50  1  0.70696400  0.18435600  0.93073800  1
  Cu  Cu51  1  0.34414400  0.15114900  0.69013800  1
  Cu  Cu52  1  0.56930900  0.15386100  0.79084600  1
  Cu  Cu53  1  0.79303600  0.18435600  0.43073800  1
  Cu  Cu54  1  0.15585600  0.15114900  0.19013800  1
  Cu  Cu55  1  0.93069100  0.15386100  0.29084600  1
  Cu  Cu56  1  0.82271900  0.06258800  0.88526100  1
  Cu  Cu57  1  0.67728100  0.06258800  0.38526100  1
  C  C58  1  0.39644300  0.98495500  0.81815900  1
  C  C59  1  0.70388600  0.00353400  0.57488000  1
  C  C60  1  0.51927800  0.93660100  0.68269200  1
  C  C61  1  0.10355700  0.98495500  0.31815900  1
  C  C62  1  0.26418500  0.93749600  0.57031900  1
  C  C63  1  0.79611400  0.00353400  0.07488000  1
  C  C64  1  0.98072200  0.93660100  0.18269200  1
  C  C65  1  0.23581500  0.93749600  0.07031900  1
  C  C66  1  0.94169100  0.73490600  0.98737600  1
  C  C67  1  0.74663200  0.75065600  0.81025200  1
  C  C68  1  0.16948500  0.75187000  0.71953800  1
  C  C69  1  0.78918200  0.72638200  0.64402800  1
  C  C70  1  0.55830900  0.73490600  0.48737600  1
  C  C71  1  0.75336800  0.75065600  0.31025200  1
  C  C72  1  0.33051500  0.75187000  0.21953800  1
  C  C73  1  0.71081800  0.72638200  0.14402800  1
  C  C74  1  0.34568000  0.59380800  0.83966400  1
  C  C75  1  0.15711000  0.59752500  0.57044300  1
  C  C76  1  0.53697700  0.54207000  0.71370500  1
  C  C77  1  0.15432000  0.59380800  0.33966400  1
  C  C78  1  0.04882400  0.48360600  0.90911000  1
  C  C79  1  0.54882400  0.51639400  0.59089000  1
  C  C80  1  0.34289000  0.59752500  0.07044300  1
  C  C81  1  0.96302300  0.54207000  0.21370500  1
  C  C82  1  0.03697700  0.45793000  0.78629500  1
  C  C83  1  0.65711000  0.40247500  0.92955700  1
  C  C84  1  0.45117600  0.48360600  0.40911000  1
  C  C85  1  0.95117600  0.51639400  0.09089000  1
  C  C86  1  0.84568000  0.40619200  0.66033600  1
  C  C87  1  0.46302300  0.45793000  0.28629500  1
  C  C88  1  0.84289000  0.40247500  0.42955700  1
  C  C89  1  0.65432000  0.40619200  0.16033600  1
  C  C90  1  0.28918200  0.27361800  0.85597200  1
  C  C91  1  0.66948500  0.24813000  0.78046200  1
  C  C92  1  0.24663200  0.24934400  0.68974800  1
  C  C93  1  0.44169100  0.26509400  0.51262400  1
  C  C94  1  0.21081800  0.27361800  0.35597200  1
  C  C95  1  0.83051500  0.24813000  0.28046200  1
  C  C96  1  0.25336800  0.24934400  0.18974800  1
  C  C97  1  0.05830900  0.26509400  0.01262400  1
  C  C98  1  0.76418500  0.06250400  0.92968100  1
  C  C99  1  0.01927800  0.06339900  0.81730800  1
  C  C100  1  0.20388600  0.99646600  0.92512000  1
  C  C101  1  0.73581500  0.06250400  0.42968100  1
  C  C102  1  0.89644300  0.01504500  0.68184100  1
  C  C103  1  0.48072200  0.06339900  0.31730800  1
  C  C104  1  0.29611400  0.99646600  0.42512000  1
  C  C105  1  0.60355700  0.01504500  0.18184100  1
