# generated using pymatgen
data_Cu3Ni3C22
_symmetry_space_group_name_H-M   'P 1'
_cell_length_a   5.97448424
_cell_length_b   5.97448424
_cell_length_c   9.84283077
_cell_angle_alpha   89.04222098
_cell_angle_beta   89.04222098
_cell_angle_gamma   59.89880975
_symmetry_Int_Tables_number   1
_chemical_formula_structural   Cu3Ni3C22
_chemical_formula_sum   'Cu3 Ni3 C22'
_cell_volume   303.89735701
_cell_formula_units_Z   1
loop_
 _symmetry_equiv_pos_site_id
 _symmetry_equiv_pos_as_xyz
  1  'x, y, z'
loop_
 _atom_site_type_symbol
 _atom_site_label
 _atom_site_symmetry_multiplicity
 _atom_site_fract_x
 _atom_site_fract_y
 _atom_site_fract_z
 _atom_site_occupancy
  C  C0  1  0.66477800  0.66477800  0.10302700  1
  C  C1  1  0.99884700  0.99884700  0.00791700  1
  C  C2  1  0.99665100  0.99665100  0.50547800  1
  C  C3  1  0.33349900  0.33349900  0.59950900  1
  Ni  Ni4  1  0.33755300  0.83539600  0.78458500  1
  Ni  Ni5  1  0.83539600  0.33755300  0.78458500  1
  Ni  Ni6  1  0.16906700  0.16906700  0.28576600  1
  Cu  Cu7  1  0.82981500  0.82981500  0.78830300  1
  Cu  Cu8  1  0.17113200  0.66071000  0.28675200  1
  Cu  Cu9  1  0.66071000  0.17113200  0.28675200  1
  C  C10  1  0.66866300  0.66866300  0.51178600  1
  C  C11  1  0.33632500  0.33632500  0.01457100  1
  C  C12  1  0.32588200  0.84082700  0.39711500  1
  C  C13  1  0.51882900  0.51882900  0.65911800  1
  C  C14  1  0.66143700  0.66143700  0.89469000  1
  C  C15  1  0.99934000  0.99934000  0.69003200  1
  C  C16  1  0.00400400  0.00400400  0.19159200  1
  C  C17  1  0.84082700  0.32588200  0.39711500  1
  C  C18  1  0.51693200  0.96334100  0.66235400  1
  C  C19  1  0.96334100  0.51693200  0.66235400  1
  C  C20  1  0.16299900  0.16299900  0.89505200  1
  C  C21  1  0.83620100  0.83620100  0.40133400  1
  C  C22  1  0.03876500  0.47890500  0.16080600  1
  C  C23  1  0.47890500  0.03876500  0.16080600  1
  C  C24  1  0.32684900  0.32684900  0.39308100  1
  C  C25  1  0.16303100  0.67512800  0.90199300  1
  C  C26  1  0.48314200  0.48314200  0.16376800  1
  C  C27  1  0.67512800  0.16303100  0.90199300  1
