# generated using pymatgen
data_CuNi2C7
_symmetry_space_group_name_H-M   'P 1'
_cell_length_a   7.70376718
_cell_length_b   7.70376718
_cell_length_c   8.23227546
_cell_angle_alpha   58.67643194
_cell_angle_beta   58.67643194
_cell_angle_gamma   52.41534679
_symmetry_Int_Tables_number   1
_chemical_formula_structural   CuNi2C7
_chemical_formula_sum   'Cu2 Ni4 C14'
_cell_volume   315.54868051
_cell_formula_units_Z   2
loop_
 _symmetry_equiv_pos_site_id
 _symmetry_equiv_pos_as_xyz
  1  'x, y, z'
loop_
 _atom_site_type_symbol
 _atom_site_label
 _atom_site_symmetry_multiplicity
 _atom_site_fract_x
 _atom_site_fract_y
 _atom_site_fract_z
 _atom_site_occupancy
  Ni  Ni0  1  0.68563900  0.67333800  0.73910800  1
  Ni  Ni1  1  0.67333800  0.68563900  0.23910800  1
  Ni  Ni2  1  0.32666200  0.31436100  0.76089200  1
  Ni  Ni3  1  0.31436100  0.32666200  0.26089200  1
  Cu  Cu4  1  0.01481400  0.98518600  0.75000000  1
  Cu  Cu5  1  0.98518600  0.01481400  0.25000000  1
  C  C6  1  0.93032700  0.69736100  0.86046700  1
  C  C7  1  0.69736100  0.93032700  0.36046700  1
  C  C8  1  0.94251900  0.22139100  0.92724500  1
  C  C9  1  0.88579500  0.36633000  0.54605200  1
  C  C10  1  0.36533900  0.63466100  0.75000000  1
  C  C11  1  0.22139100  0.94251900  0.42724500  1
  C  C12  1  0.63367000  0.11420500  0.95394800  1
  C  C13  1  0.36633000  0.88579500  0.04605200  1
  C  C14  1  0.77860900  0.05748100  0.57275500  1
  C  C15  1  0.63466100  0.36533900  0.25000000  1
  C  C16  1  0.11420500  0.63367000  0.45394800  1
  C  C17  1  0.05748100  0.77860900  0.07275500  1
  C  C18  1  0.30263900  0.06967300  0.63953300  1
  C  C19  1  0.06967300  0.30263900  0.13953300  1
