# generated using pymatgen
data_CuNiC8
_symmetry_space_group_name_H-M   'P 1'
_cell_length_a   6.75063200
_cell_length_b   6.58136500
_cell_length_c   11.42318791
_cell_angle_alpha   55.08607246
_cell_angle_beta   90.00000000
_cell_angle_gamma   90.00000000
_symmetry_Int_Tables_number   1
_chemical_formula_structural   CuNiC8
_chemical_formula_sum   'Cu2 Ni2 C16'
_cell_volume   416.16768005
_cell_formula_units_Z   2
loop_
 _symmetry_equiv_pos_site_id
 _symmetry_equiv_pos_as_xyz
  1  'x, y, z'
loop_
 _atom_site_type_symbol
 _atom_site_label
 _atom_site_symmetry_multiplicity
 _atom_site_fract_x
 _atom_site_fract_y
 _atom_site_fract_z
 _atom_site_occupancy
  Ni  Ni0  1  0.00000000  0.50000000  0.50000000  1
  Ni  Ni1  1  0.50000000  0.50000000  0.00000000  1
  C  C2  1  0.95622100  0.26266300  0.24813800  1
  C  C3  1  0.54377900  0.26266300  0.74813800  1
  C  C4  1  0.45622100  0.73733700  0.25186200  1
  C  C5  1  0.04377900  0.73733700  0.75186200  1
  Cu  Cu6  1  0.00000000  0.00000000  0.00000000  1
  Cu  Cu7  1  0.50000000  0.00000000  0.50000000  1
  C  C8  1  0.26711100  0.23061300  0.94616900  1
  C  C9  1  0.76711100  0.76938700  0.55383100  1
  C  C10  1  0.73288900  0.76938700  0.05383100  1
  C  C11  1  0.23288900  0.23061300  0.44616900  1
  C  C12  1  0.18185500  0.68792400  0.04111500  1
  C  C13  1  0.68185500  0.31207600  0.45888500  1
  C  C14  1  0.81814500  0.31207600  0.95888500  1
  C  C15  1  0.31814500  0.68792400  0.54111500  1
  C  C16  1  0.46118700  0.86469300  0.72493300  1
  C  C17  1  0.96118700  0.13530700  0.77506700  1
  C  C18  1  0.53881300  0.13530700  0.27506700  1
  C  C19  1  0.03881300  0.86469300  0.22493300  1
