# generated using pymatgen
data_Cu(Ni3C2)2
_symmetry_space_group_name_H-M   'P 1'
_cell_length_a   7.47688763
_cell_length_b   7.47688763
_cell_length_c   7.47688823
_cell_angle_alpha   60.89170660
_cell_angle_beta   60.89170660
_cell_angle_gamma   60.89169967
_symmetry_Int_Tables_number   1
_chemical_formula_structural   Cu(Ni3C2)2
_chemical_formula_sum   'Cu2 Ni12 C8'
_cell_volume   301.50216165
_cell_formula_units_Z   2
loop_
 _symmetry_equiv_pos_site_id
 _symmetry_equiv_pos_as_xyz
  1  'x, y, z'
loop_
 _atom_site_type_symbol
 _atom_site_label
 _atom_site_symmetry_multiplicity
 _atom_site_fract_x
 _atom_site_fract_y
 _atom_site_fract_z
 _atom_site_occupancy
  C  C0  1  0.50000000  0.50000000  0.00000000  1
  C  C1  1  0.00000000  0.50000000  0.50000000  1
  C  C2  1  0.50000000  0.00000000  0.50000000  1
  C  C3  1  0.50000000  0.50000000  0.50000000  1
  C  C4  1  0.00000000  0.50000000  0.00000000  1
  C  C5  1  0.00000000  0.00000000  0.00000000  1
  C  C6  1  0.50000000  0.00000000  0.00000000  1
  C  C7  1  0.00000000  0.00000000  0.50000000  1
  Ni  Ni8  1  0.07284100  0.67874100  0.07284100  1
  Ni  Ni9  1  0.92715900  0.32125900  0.92715900  1
  Ni  Ni10  1  0.68663500  0.68663500  0.06123300  1
  Ni  Ni11  1  0.06123300  0.68663500  0.68663500  1
  Ni  Ni12  1  0.67874100  0.07284100  0.07284100  1
  Ni  Ni13  1  0.07284100  0.07284100  0.67874100  1
  Ni  Ni14  1  0.68663500  0.06123300  0.68663500  1
  Ni  Ni15  1  0.93876700  0.31336500  0.31336500  1
  Ni  Ni16  1  0.92715900  0.92715900  0.32125900  1
  Ni  Ni17  1  0.31336500  0.31336500  0.93876700  1
  Ni  Ni18  1  0.32125900  0.92715900  0.92715900  1
  Ni  Ni19  1  0.31336500  0.93876700  0.31336500  1
  Cu  Cu20  1  0.60828900  0.60828900  0.60828900  1
  Cu  Cu21  1  0.39171100  0.39171100  0.39171100  1
