# generated using pymatgen
data_Cu2Ni2C11
_symmetry_space_group_name_H-M   'P 1'
_cell_length_a   6.32692700
_cell_length_b   5.06805200
_cell_length_c   10.96495158
_cell_angle_alpha   89.95372424
_cell_angle_beta   90.00000000
_cell_angle_gamma   90.00000000
_symmetry_Int_Tables_number   1
_chemical_formula_structural   Cu2Ni2C11
_chemical_formula_sum   'Cu4 Ni4 C22'
_cell_volume   351.59319618
_cell_formula_units_Z   2
loop_
 _symmetry_equiv_pos_site_id
 _symmetry_equiv_pos_as_xyz
  1  'x, y, z'
loop_
 _atom_site_type_symbol
 _atom_site_label
 _atom_site_symmetry_multiplicity
 _atom_site_fract_x
 _atom_site_fract_y
 _atom_site_fract_z
 _atom_site_occupancy
  C  C0  1  0.26436400  0.23788900  0.17405000  1
  C  C1  1  0.73563600  0.23788900  0.67405000  1
  C  C2  1  0.74302500  0.74025400  0.32623500  1
  C  C3  1  0.99557900  0.74350200  0.09329900  1
  C  C4  1  0.00442100  0.74350200  0.59329900  1
  C  C5  1  0.25697500  0.74025400  0.82623500  1
  Ni  Ni6  1  0.49424000  0.74026900  0.57804300  1
  Ni  Ni7  1  0.50576000  0.74026900  0.07804300  1
  Ni  Ni8  1  0.98745000  0.23753400  0.91402900  1
  Ni  Ni9  1  0.01255000  0.23753400  0.41402900  1
  Cu  Cu10  1  0.25592000  0.73704500  0.33092700  1
  Cu  Cu11  1  0.74408000  0.73704500  0.83092700  1
  Cu  Cu12  1  0.75638200  0.23427200  0.16882400  1
  Cu  Cu13  1  0.24361800  0.23427200  0.66882400  1
  C  C14  1  0.24688900  0.84625600  0.18962100  1
  C  C15  1  0.22868400  0.41217000  0.33096000  1
  C  C16  1  0.46115200  0.35622600  0.61373500  1
  C  C17  1  0.47439100  0.81409600  0.40141200  1
  C  C18  1  0.52560900  0.81409600  0.90141200  1
  C  C19  1  0.53884800  0.35622600  0.11373500  1
  C  C20  1  0.77131600  0.41217000  0.83096000  1
  C  C21  1  0.75311100  0.84625600  0.68962100  1
  C  C22  1  0.79036700  0.34657200  0.30954800  1
  C  C23  1  0.75594800  0.91170100  0.16832600  1
  C  C24  1  0.95904800  0.85667900  0.90607300  1
  C  C25  1  0.96793400  0.33661500  0.08458700  1
  C  C26  1  0.03206600  0.33661500  0.58458700  1
  C  C27  1  0.04095200  0.85667900  0.40607300  1
  C  C28  1  0.24405200  0.91170100  0.66832600  1
  C  C29  1  0.20963300  0.34657200  0.80954800  1
