# generated using pymatgen
data_Cu2NiC5
_symmetry_space_group_name_H-M   'P 1'
_cell_length_a   8.65333900
_cell_length_b   9.11250600
_cell_length_c   12.35937800
_cell_angle_alpha   90.00000000
_cell_angle_beta   90.00000000
_cell_angle_gamma   90.00000000
_symmetry_Int_Tables_number   1
_chemical_formula_structural   Cu2NiC5
_chemical_formula_sum   'Cu16 Ni8 C40'
_cell_volume   974.58149303
_cell_formula_units_Z   8
loop_
 _symmetry_equiv_pos_site_id
 _symmetry_equiv_pos_as_xyz
  1  'x, y, z'
loop_
 _atom_site_type_symbol
 _atom_site_label
 _atom_site_symmetry_multiplicity
 _atom_site_fract_x
 _atom_site_fract_y
 _atom_site_fract_z
 _atom_site_occupancy
  Ni  Ni0  1  0.51836500  0.01478600  0.12301000  1
  Ni  Ni1  1  0.51836500  0.01478600  0.37699000  1
  Ni  Ni2  1  0.01836500  0.48521400  0.62301000  1
  Ni  Ni3  1  0.01836500  0.48521400  0.87699000  1
  Ni  Ni4  1  0.98163500  0.51478600  0.12301000  1
  Ni  Ni5  1  0.98163500  0.51478600  0.37699000  1
  Ni  Ni6  1  0.48163500  0.98521400  0.87699000  1
  Ni  Ni7  1  0.48163500  0.98521400  0.62301000  1
  Cu  Cu8  1  0.19856900  0.10475600  0.25000000  1
  Cu  Cu9  1  0.83855400  0.14946800  0.51464800  1
  Cu  Cu10  1  0.83855400  0.14946800  0.98535200  1
  Cu  Cu11  1  0.18222200  0.16668400  0.75000000  1
  Cu  Cu12  1  0.68222200  0.33331600  0.25000000  1
  Cu  Cu13  1  0.33855400  0.35053200  0.01464800  1
  Cu  Cu14  1  0.33855400  0.35053200  0.48535200  1
  Cu  Cu15  1  0.69856900  0.39524400  0.75000000  1
  Cu  Cu16  1  0.30143100  0.60475600  0.25000000  1
  Cu  Cu17  1  0.66144600  0.64946800  0.51464800  1
  Cu  Cu18  1  0.66144600  0.64946800  0.98535200  1
  Cu  Cu19  1  0.31777800  0.66668400  0.75000000  1
  Cu  Cu20  1  0.81777800  0.83331600  0.25000000  1
  Cu  Cu21  1  0.16144600  0.85053200  0.01464800  1
  Cu  Cu22  1  0.16144600  0.85053200  0.48535200  1
  Cu  Cu23  1  0.80143100  0.89524400  0.75000000  1
  C  C24  1  0.90667600  0.00832700  0.62773300  1
  C  C25  1  0.90667600  0.00832700  0.87226700  1
  C  C26  1  0.63348100  0.03148300  0.75000000  1
  C  C27  1  0.62040700  0.11803800  0.51223100  1
  C  C28  1  0.62040700  0.11803800  0.98776900  1
  C  C29  1  0.65798400  0.12366100  0.25000000  1
  C  C30  1  0.32229100  0.15613800  0.63054800  1
  C  C31  1  0.32229100  0.15613800  0.86945200  1
  C  C32  1  0.34970900  0.19146100  0.11418200  1
  C  C33  1  0.34970900  0.19146100  0.38581800  1
  C  C34  1  0.84970900  0.30853900  0.61418200  1
  C  C35  1  0.84970900  0.30853900  0.88581800  1
  C  C36  1  0.82229100  0.34386200  0.13054800  1
  C  C37  1  0.82229100  0.34386200  0.36945200  1
  C  C38  1  0.15798400  0.37633900  0.75000000  1
  C  C39  1  0.12040700  0.38196200  0.01223100  1
  C  C40  1  0.12040700  0.38196200  0.48776900  1
  C  C41  1  0.13348100  0.46851700  0.25000000  1
  C  C42  1  0.40667600  0.49167300  0.37226700  1
  C  C43  1  0.40667600  0.49167300  0.12773300  1
  C  C44  1  0.59332400  0.50832700  0.87226700  1
  C  C45  1  0.59332400  0.50832700  0.62773300  1
  C  C46  1  0.86651900  0.53148300  0.75000000  1
  C  C47  1  0.87959300  0.61803800  0.51223100  1
  C  C48  1  0.87959300  0.61803800  0.98776900  1
  C  C49  1  0.84201600  0.62366100  0.25000000  1
  C  C50  1  0.17770900  0.65613800  0.86945200  1
  C  C51  1  0.17770900  0.65613800  0.63054800  1
  C  C52  1  0.15029100  0.69146100  0.11418200  1
  C  C53  1  0.15029100  0.69146100  0.38581800  1
  C  C54  1  0.65029100  0.80853900  0.88581800  1
  C  C55  1  0.65029100  0.80853900  0.61418200  1
  C  C56  1  0.67770900  0.84386200  0.13054800  1
  C  C57  1  0.67770900  0.84386200  0.36945200  1
  C  C58  1  0.34201600  0.87633900  0.75000000  1
  C  C59  1  0.37959300  0.88196200  0.01223100  1
  C  C60  1  0.37959300  0.88196200  0.48776900  1
  C  C61  1  0.36651900  0.96851700  0.25000000  1
  C  C62  1  0.09332400  0.99167300  0.12773300  1
  C  C63  1  0.09332400  0.99167300  0.37226700  1
