# generated using pymatgen
data_Cu11(NiC16)5
_symmetry_space_group_name_H-M   'P 1'
_cell_length_a   5.01600880
_cell_length_b   5.01600880
_cell_length_c   38.43013121
_cell_angle_alpha   89.01250023
_cell_angle_beta   89.01250023
_cell_angle_gamma   119.66320320
_symmetry_Int_Tables_number   1
_chemical_formula_structural   Cu11(NiC16)5
_chemical_formula_sum   'Cu11 Ni5 C80'
_cell_volume   839.70640437
_cell_formula_units_Z   1
loop_
 _symmetry_equiv_pos_site_id
 _symmetry_equiv_pos_as_xyz
  1  'x, y, z'
loop_
 _atom_site_type_symbol
 _atom_site_label
 _atom_site_symmetry_multiplicity
 _atom_site_fract_x
 _atom_site_fract_y
 _atom_site_fract_z
 _atom_site_occupancy
  C  C0  1  0.91296500  0.71831300  0.06242400  1
  C  C1  1  0.99912500  0.12440400  0.81258100  1
  C  C2  1  0.93787500  0.06212500  0.00000000  1
  C  C3  1  0.87559600  0.00087500  0.18741900  1
  C  C4  1  0.80867000  0.93808100  0.37506000  1
  C  C5  1  0.74901300  0.87442900  0.56247000  1
  C  C6  1  0.68831700  0.81370700  0.75002500  1
  C  C7  1  0.96564300  0.41316000  0.93742000  1
  C  C8  1  0.62828000  0.74795300  0.93752300  1
  C  C9  1  0.83403100  0.27990600  0.31267400  1
  C  C10  1  0.72009400  0.16596900  0.68732600  1
  C  C11  1  0.56126200  0.69021900  0.12500600  1
  C  C12  1  0.50050400  0.62554500  0.31263400  1
  C  C13  1  0.58684000  0.03435700  0.06258000  1
  C  C14  1  0.46987200  0.91252100  0.43738300  1
  C  C15  1  0.78031900  0.58552500  0.43762800  1
  C  C16  1  0.66422900  0.46656900  0.81236300  1
  C  C17  1  0.33606600  0.78316600  0.81266000  1
  C  C18  1  0.21683400  0.66393400  0.18734000  1
  C  C19  1  0.53343100  0.33577100  0.18763700  1
  C  C20  1  0.41447500  0.21968100  0.56237200  1
  C  C21  1  0.43751400  0.56248600  0.50000000  1
  C  C22  1  0.28168700  0.08703500  0.93757600  1
  C  C23  1  0.16677300  0.96925800  0.31247800  1
  C  C24  1  0.37445500  0.49949600  0.68736600  1
  C  C25  1  0.03074200  0.83322700  0.68752200  1
  C  C26  1  0.30978100  0.43873800  0.87499400  1
  C  C27  1  0.25204700  0.37172000  0.06247700  1
  C  C28  1  0.18629300  0.31168300  0.24997500  1
  C  C29  1  0.12557100  0.25098700  0.43753000  1
  C  C30  1  0.06191900  0.19133000  0.62494000  1
  C  C31  1  0.08747900  0.53012800  0.56261700  1
  Ni  Ni32  1  0.98045300  0.76943100  0.87490900  1
  Ni  Ni33  1  0.73054700  0.52077400  0.62486000  1
  Ni  Ni34  1  0.60443800  0.39556200  0.00000000  1
  Ni  Ni35  1  0.47922600  0.26945300  0.37514000  1
  Ni  Ni36  1  0.23056900  0.01954700  0.12509100  1
  Cu  Cu37  1  0.85835700  0.65254100  0.24993700  1
  Cu  Cu38  1  0.89257500  0.35766200  0.12504800  1
  Cu  Cu39  1  0.76701800  0.23298200  0.50000000  1
  Cu  Cu40  1  0.64233800  0.10742500  0.87495200  1
  Cu  Cu41  1  0.51578200  0.97274200  0.25024700  1
  Cu  Cu42  1  0.39422200  0.85974500  0.62497500  1
  Cu  Cu43  1  0.27054800  0.72945200  0.00000000  1
  Cu  Cu44  1  0.34745900  0.14164300  0.75006300  1
  Cu  Cu45  1  0.10859700  0.89140300  0.50000000  1
  Cu  Cu46  1  0.14025500  0.60577800  0.37502500  1
  Cu  Cu47  1  0.02725800  0.48421800  0.74975300  1
  C  C48  1  0.91147000  0.67611700  0.15298000  1
  C  C49  1  0.94289400  0.71288200  0.97192700  1
  C  C50  1  0.92959500  0.05429900  0.09675000  1
  C  C51  1  0.80510000  0.92956600  0.47154200  1
  C  C52  1  0.94570100  0.07040500  0.90325000  1
  C  C53  1  0.82699900  0.94145600  0.27900700  1
  C  C54  1  0.69213800  0.81790800  0.65331800  1
  C  C55  1  0.67885200  0.80390600  0.84662300  1
  C  C56  1  0.54926500  0.68538100  0.22123000  1
  C  C57  1  0.92975700  0.41137100  0.02806700  1
  C  C58  1  0.57264400  0.69659400  0.02870700  1
  C  C59  1  0.79919000  0.28261900  0.40333700  1
  C  C60  1  0.68006400  0.16096700  0.77774100  1
  C  C61  1  0.96871100  0.45344800  0.84644200  1
  C  C62  1  0.83903300  0.31993600  0.22225900  1
  C  C63  1  0.71738100  0.20081000  0.59666300  1
  C  C64  1  0.78212600  0.54333200  0.52829100  1
  C  C65  1  0.82047700  0.58616000  0.34718800  1
  C  C66  1  0.69470900  0.46161500  0.72215300  1
  C  C67  1  0.54655200  0.03128900  0.15355800  1
  C  C68  1  0.41860400  0.90673800  0.52836800  1
  C  C69  1  0.58862900  0.07024300  0.97193300  1
  C  C70  1  0.46828300  0.95199200  0.34666400  1
  C  C71  1  0.33180900  0.80842000  0.72166800  1
  C  C72  1  0.66164300  0.42613300  0.90280300  1
  C  C73  1  0.53838500  0.30529100  0.27784700  1
  C  C74  1  0.41384000  0.17952300  0.65281200  1
  C  C75  1  0.57386700  0.33835700  0.09719700  1
  C  C76  1  0.45666800  0.21787400  0.47170900  1
  C  C77  1  0.29638600  0.78095400  0.90344600  1
  C  C78  1  0.19158000  0.66819100  0.27833200  1
  C  C79  1  0.21904600  0.70361400  0.09655400  1
  C  C80  1  0.28711800  0.05710600  0.02807300  1
  C  C81  1  0.16615600  0.92651400  0.40299000  1
  C  C82  1  0.04388100  0.81738200  0.77830800  1
  C  C83  1  0.32388300  0.08853000  0.84702000  1
  C  C84  1  0.18261800  0.95611900  0.22169200  1
  C  C85  1  0.43018400  0.55253200  0.59634400  1
  C  C86  1  0.07348600  0.83384400  0.59701000  1
  C  C87  1  0.44746800  0.56981600  0.40365600  1
  C  C88  1  0.31461900  0.45073500  0.77877000  1
  C  C89  1  0.30340600  0.42735600  0.97129300  1
  C  C90  1  0.18209200  0.30786200  0.34668200  1
  C  C91  1  0.05854400  0.17300100  0.72099300  1
  C  C92  1  0.19609400  0.32114800  0.15337700  1
  C  C93  1  0.07043400  0.19490000  0.52845800  1
  C  C94  1  0.04800800  0.53171700  0.65333600  1
  C  C95  1  0.09326200  0.58139600  0.47163200  1
