# generated using pymatgen
data_Cu7NiC40
_symmetry_space_group_name_H-M   'P 1'
_cell_length_a   11.91257700
_cell_length_b   4.89037800
_cell_length_c   9.93610330
_cell_angle_alpha   89.76965383
_cell_angle_beta   90.00000000
_cell_angle_gamma   90.00000000
_symmetry_Int_Tables_number   1
_chemical_formula_structural   Cu7NiC40
_chemical_formula_sum   'Cu7 Ni1 C40'
_cell_volume   578.84293647
_cell_formula_units_Z   1
loop_
 _symmetry_equiv_pos_site_id
 _symmetry_equiv_pos_as_xyz
  1  'x, y, z'
loop_
 _atom_site_type_symbol
 _atom_site_label
 _atom_site_symmetry_multiplicity
 _atom_site_fract_x
 _atom_site_fract_y
 _atom_site_fract_z
 _atom_site_occupancy
  Ni  Ni0  1  0.50000000  0.93884000  0.71793000  1
  Cu  Cu1  1  0.00000000  0.96967800  0.72750000  1
  Cu  Cu2  1  0.00000000  0.53156600  0.22698800  1
  Cu  Cu3  1  0.50000000  0.53088800  0.22685600  1
  Cu  Cu4  1  0.25087000  0.46619600  0.77459300  1
  Cu  Cu5  1  0.74913000  0.46619600  0.77459300  1
  Cu  Cu6  1  0.24952200  0.03085800  0.27280100  1
  Cu  Cu7  1  0.75047800  0.03085800  0.27280100  1
  C  C8  1  0.24812900  0.91935500  0.59663700  1
  C  C9  1  0.75187100  0.91935500  0.59663700  1
  C  C10  1  0.24999500  0.58331800  0.09661900  1
  C  C11  1  0.75000500  0.58331800  0.09661900  1
  C  C12  1  0.00000000  0.41810000  0.90370300  1
  C  C13  1  0.50000000  0.41930100  0.90007600  1
  C  C14  1  0.50000000  0.07905900  0.40437000  1
  C  C15  1  0.00000000  0.08112300  0.40321500  1
  C  C16  1  0.24925000  0.84996500  0.44660300  1
  C  C17  1  0.75075000  0.84996500  0.44660300  1
  C  C18  1  0.14800700  0.77357900  0.67147700  1
  C  C19  1  0.65161400  0.77114300  0.67156800  1
  C  C20  1  0.85199300  0.77357900  0.67147700  1
  C  C21  1  0.34838600  0.77114300  0.67156800  1
  C  C22  1  0.50000000  0.76987800  0.38302600  1
  C  C23  1  0.00000000  0.77210300  0.38120300  1
  C  C24  1  0.50000000  0.73357000  0.88034400  1
  C  C25  1  0.00000000  0.72746200  0.88168200  1
  C  C26  1  0.14930300  0.72663200  0.17212400  1
  C  C27  1  0.35080600  0.72722500  0.17188400  1
  C  C28  1  0.85069700  0.72663200  0.17212400  1
  C  C29  1  0.64919400  0.72722500  0.17188400  1
  C  C30  1  0.24878600  0.65387000  0.94675800  1
  C  C31  1  0.75121400  0.65387000  0.94675800  1
  C  C32  1  0.50000000  0.35918600  0.05182100  1
  C  C33  1  0.00000000  0.34920000  0.05415400  1
  C  C34  1  0.39779100  0.28169500  0.82833400  1
  C  C35  1  0.60220900  0.28169500  0.82833400  1
  C  C36  1  0.89924400  0.27364800  0.82909300  1
  C  C37  1  0.10075600  0.27364800  0.82909300  1
  C  C38  1  0.25056300  0.27379100  0.11901600  1
  C  C39  1  0.74943700  0.27379100  0.11901600  1
  C  C40  1  0.24924200  0.22777100  0.61869400  1
  C  C41  1  0.75075800  0.22777100  0.61869400  1
  C  C42  1  0.39935300  0.22532600  0.33022000  1
  C  C43  1  0.60064700  0.22532600  0.33022000  1
  C  C44  1  0.89925400  0.22608100  0.32804900  1
  C  C45  1  0.10074600  0.22608100  0.32804900  1
  C  C46  1  0.50000000  0.14880700  0.55508200  1
  C  C47  1  0.00000000  0.15033000  0.55310500  1
