# generated using pymatgen
data_CuNi12C11
_symmetry_space_group_name_H-M   'P 1'
_cell_length_a   6.21037279
_cell_length_b   6.21037279
_cell_length_c   24.79430029
_cell_angle_alpha   82.78866899
_cell_angle_beta   82.78866899
_cell_angle_gamma   73.04003097
_symmetry_Int_Tables_number   1
_chemical_formula_structural   CuNi12C11
_chemical_formula_sum   'Cu4 Ni48 C44'
_cell_volume   903.46733540
_cell_formula_units_Z   4
loop_
 _symmetry_equiv_pos_site_id
 _symmetry_equiv_pos_as_xyz
  1  'x, y, z'
loop_
 _atom_site_type_symbol
 _atom_site_label
 _atom_site_symmetry_multiplicity
 _atom_site_fract_x
 _atom_site_fract_y
 _atom_site_fract_z
 _atom_site_occupancy
  C  C0  1  0.00000000  0.00000000  0.50000000  1
  C  C1  1  0.00000000  0.00000000  0.00000000  1
  C  C2  1  0.98368400  0.01631600  0.75000000  1
  C  C3  1  0.01631600  0.98368400  0.25000000  1
  Ni  Ni4  1  0.02487400  0.65842600  0.57983300  1
  Ni  Ni5  1  0.34157400  0.97512600  0.92016700  1
  Ni  Ni6  1  0.97512600  0.34157400  0.42016700  1
  Ni  Ni7  1  0.65842600  0.02487400  0.07983300  1
  Ni  Ni8  1  0.28113100  0.64822000  0.55731000  1
  Ni  Ni9  1  0.35178000  0.71886900  0.94269000  1
  Ni  Ni10  1  0.71886900  0.35178000  0.44269000  1
  Ni  Ni11  1  0.64822000  0.28113100  0.05731000  1
  Ni  Ni12  1  0.73001100  0.30687200  0.56675300  1
  Ni  Ni13  1  0.69312800  0.26998900  0.93324700  1
  Ni  Ni14  1  0.26998900  0.69312800  0.43324700  1
  Ni  Ni15  1  0.30687200  0.73001100  0.06675300  1
  Ni  Ni16  1  0.67268900  0.07261500  0.58435400  1
  Ni  Ni17  1  0.92738500  0.32731100  0.91564600  1
  Ni  Ni18  1  0.32731100  0.92738500  0.41564600  1
  Ni  Ni19  1  0.07261500  0.67268900  0.08435400  1
  Ni  Ni20  1  0.29614100  0.24696300  0.49720100  1
  Ni  Ni21  1  0.75303700  0.70385900  0.00279900  1
  Ni  Ni22  1  0.70385900  0.75303700  0.50279900  1
  Ni  Ni23  1  0.24696300  0.29614100  0.99720100  1
  Ni  Ni24  1  0.33045700  0.06825800  0.55150000  1
  Ni  Ni25  1  0.93174200  0.66954300  0.94850000  1
  Ni  Ni26  1  0.66954300  0.93174200  0.44850000  1
  Ni  Ni27  1  0.06825800  0.33045700  0.05150000  1
  Ni  Ni28  1  0.31215700  0.05349000  0.80231600  1
  Ni  Ni29  1  0.94651000  0.68784300  0.69768400  1
  Ni  Ni30  1  0.68784300  0.94651000  0.19768400  1
  Ni  Ni31  1  0.05349000  0.31215700  0.30231600  1
  Ni  Ni32  1  0.34677300  0.78942000  0.79919100  1
  Ni  Ni33  1  0.21058000  0.65322700  0.70080900  1
  Ni  Ni34  1  0.65322700  0.21058000  0.20080900  1
  Ni  Ni35  1  0.78942000  0.34677300  0.29919100  1
  Ni  Ni36  1  0.96260100  0.44825100  0.78075500  1
  Ni  Ni37  1  0.55174900  0.03739900  0.71924500  1
  Ni  Ni38  1  0.03739900  0.55174900  0.21924500  1
  Ni  Ni39  1  0.44825100  0.96260100  0.28075500  1
  Ni  Ni40  1  0.88935700  0.28318300  0.82919300  1
  Ni  Ni41  1  0.71681700  0.11064300  0.67080700  1
  Ni  Ni42  1  0.11064300  0.71681700  0.17080700  1
  Ni  Ni43  1  0.28318300  0.88935700  0.32919300  1
  Ni  Ni44  1  0.25074400  0.07698600  0.65556500  1
  Ni  Ni45  1  0.92301400  0.74925600  0.84443500  1
  Ni  Ni46  1  0.74925600  0.92301400  0.34443500  1
  Ni  Ni47  1  0.07698600  0.25074400  0.15556500  1
  Ni  Ni48  1  0.12705900  0.31473400  0.67921200  1
  Ni  Ni49  1  0.68526600  0.87294100  0.82078800  1
  Ni  Ni50  1  0.87294100  0.68526600  0.32078800  1
  Ni  Ni51  1  0.31473400  0.12705900  0.17921200  1
  Cu  Cu52  1  0.57841700  0.69128300  0.62234000  1
  Cu  Cu53  1  0.30871700  0.42158300  0.87766000  1
  Cu  Cu54  1  0.42158300  0.30871700  0.37766000  1
  Cu  Cu55  1  0.69128300  0.57841700  0.12234000  1
  C  C56  1  0.81417500  0.65087600  0.63573100  1
  C  C57  1  0.34912400  0.18582500  0.86426900  1
  C  C58  1  0.18582500  0.34912400  0.36426900  1
  C  C59  1  0.65087600  0.81417500  0.13573100  1
  C  C60  1  0.44592700  0.58872000  0.66598700  1
  C  C61  1  0.41128000  0.55407300  0.83401300  1
  C  C62  1  0.55407300  0.41128000  0.33401300  1
  C  C63  1  0.58872000  0.44592700  0.16598700  1
  C  C64  1  0.57883000  0.59907900  0.56903200  1
  C  C65  1  0.40092100  0.42117000  0.93096800  1
  C  C66  1  0.42117000  0.40092100  0.43096800  1
  C  C67  1  0.59907900  0.57883000  0.06903200  1
  C  C68  1  0.46874100  0.94621300  0.61433700  1
  C  C69  1  0.05378700  0.53125900  0.88566300  1
  C  C70  1  0.53125900  0.05378700  0.38566300  1
  C  C71  1  0.94621300  0.46874100  0.11433700  1
  C  C72  1  0.12602000  0.67993200  0.54653800  1
  C  C73  1  0.32006800  0.87398000  0.95346200  1
  C  C74  1  0.87398000  0.32006800  0.45346200  1
  C  C75  1  0.67993200  0.12602000  0.04653800  1
  C  C76  1  0.79777900  0.14000900  0.57043300  1
  C  C77  1  0.85999100  0.20222100  0.92956700  1
  C  C78  1  0.20222100  0.85999100  0.42956700  1
  C  C79  1  0.14000900  0.79777900  0.07043300  1
  C  C80  1  0.24672200  0.12389700  0.51887800  1
  C  C81  1  0.87610300  0.75327800  0.98112200  1
  C  C82  1  0.75327800  0.87610300  0.48112200  1
  C  C83  1  0.12389700  0.24672200  0.01887800  1
  C  C84  1  0.31517600  0.94136200  0.77683000  1
  C  C85  1  0.05863800  0.68482400  0.72317000  1
  C  C86  1  0.68482400  0.05863800  0.22317000  1
  C  C87  1  0.94136200  0.31517600  0.27683000  1
  C  C88  1  0.90337100  0.31634600  0.78960100  1
  C  C89  1  0.68365400  0.09662900  0.71039900  1
  C  C90  1  0.09662900  0.68365400  0.21039900  1
  C  C91  1  0.31634600  0.90337100  0.28960100  1
  C  C92  1  0.11473600  0.16277400  0.67817800  1
  C  C93  1  0.83722600  0.88526400  0.82182200  1
  C  C94  1  0.88526400  0.83722600  0.32182200  1
  C  C95  1  0.16277400  0.11473600  0.17817800  1
