# generated using pymatgen
data_Cu10Ni3C10
_symmetry_space_group_name_H-M   'P 1'
_cell_length_a   7.73934700
_cell_length_b   10.29865300
_cell_length_c   14.96050000
_cell_angle_alpha   90.00000000
_cell_angle_beta   90.00000000
_cell_angle_gamma   90.00000000
_symmetry_Int_Tables_number   1
_chemical_formula_structural   Cu10Ni3C10
_chemical_formula_sum   'Cu40 Ni12 C40'
_cell_volume   1192.42439645
_cell_formula_units_Z   4
loop_
 _symmetry_equiv_pos_site_id
 _symmetry_equiv_pos_as_xyz
  1  'x, y, z'
loop_
 _atom_site_type_symbol
 _atom_site_label
 _atom_site_symmetry_multiplicity
 _atom_site_fract_x
 _atom_site_fract_y
 _atom_site_fract_z
 _atom_site_occupancy
  C  C0  1  0.19786200  0.43421600  0.75000000  1
  C  C1  1  0.80213800  0.56578400  0.25000000  1
  C  C2  1  0.19786200  0.06578400  0.25000000  1
  C  C3  1  0.80213800  0.93421600  0.75000000  1
  Ni  Ni4  1  0.65073300  0.28543300  0.75000000  1
  Ni  Ni5  1  0.34926700  0.71456700  0.25000000  1
  Ni  Ni6  1  0.65073300  0.21456700  0.25000000  1
  Ni  Ni7  1  0.34926700  0.78543300  0.75000000  1
  Ni  Ni8  1  0.11841400  0.12980400  0.88706400  1
  Ni  Ni9  1  0.88158600  0.87019600  0.38706400  1
  Ni  Ni10  1  0.11841400  0.37019600  0.11293600  1
  Ni  Ni11  1  0.88158600  0.62980400  0.61293600  1
  Ni  Ni12  1  0.88158600  0.87019600  0.11293600  1
  Ni  Ni13  1  0.11841400  0.12980400  0.61293600  1
  Ni  Ni14  1  0.88158600  0.62980400  0.88706400  1
  Ni  Ni15  1  0.11841400  0.37019600  0.38706400  1
  Cu  Cu16  1  0.73132300  0.34186200  0.67471400  1
  Cu  Cu17  1  0.26867700  0.65813800  0.17471400  1
  Cu  Cu18  1  0.73132300  0.15813800  0.32528600  1
  Cu  Cu19  1  0.26867700  0.84186200  0.82528600  1
  Cu  Cu20  1  0.26867700  0.65813800  0.32528600  1
  Cu  Cu21  1  0.73132300  0.34186200  0.82528600  1
  Cu  Cu22  1  0.26867700  0.84186200  0.67471400  1
  Cu  Cu23  1  0.73132300  0.15813800  0.17471400  1
  Cu  Cu24  1  0.29094700  0.08500400  0.88776300  1
  Cu  Cu25  1  0.70905300  0.91499600  0.38776300  1
  Cu  Cu26  1  0.29094700  0.41499600  0.11223700  1
  Cu  Cu27  1  0.70905300  0.58500400  0.61223700  1
  Cu  Cu28  1  0.70905300  0.91499600  0.11223700  1
  Cu  Cu29  1  0.29094700  0.08500400  0.61223700  1
  Cu  Cu30  1  0.70905300  0.58500400  0.88776300  1
  Cu  Cu31  1  0.29094700  0.41499600  0.38776300  1
  Cu  Cu32  1  0.06970400  0.13905400  0.97792600  1
  Cu  Cu33  1  0.93029600  0.86094600  0.47792600  1
  Cu  Cu34  1  0.06970400  0.36094600  0.02207400  1
  Cu  Cu35  1  0.93029600  0.63905400  0.52207400  1
  Cu  Cu36  1  0.93029600  0.86094600  0.02207400  1
  Cu  Cu37  1  0.06970400  0.13905400  0.52207400  1
  Cu  Cu38  1  0.93029600  0.63905400  0.97792600  1
  Cu  Cu39  1  0.06970400  0.36094600  0.47792600  1
  Cu  Cu40  1  0.39514500  0.55533900  0.91755500  1
  Cu  Cu41  1  0.60485500  0.44466100  0.41755500  1
  Cu  Cu42  1  0.39514500  0.94466100  0.08244500  1
  Cu  Cu43  1  0.60485500  0.05533900  0.58244500  1
  Cu  Cu44  1  0.60485500  0.44466100  0.08244500  1
  Cu  Cu45  1  0.39514500  0.55533900  0.58244500  1
  Cu  Cu46  1  0.60485500  0.05533900  0.91755500  1
  Cu  Cu47  1  0.39514500  0.94466100  0.41755500  1
  Cu  Cu48  1  0.42381100  0.40072600  0.91825200  1
  Cu  Cu49  1  0.57618900  0.59927400  0.41825200  1
  Cu  Cu50  1  0.42381100  0.09927400  0.08174800  1
  Cu  Cu51  1  0.57618900  0.90072600  0.58174800  1
  Cu  Cu52  1  0.57618900  0.59927400  0.08174800  1
  Cu  Cu53  1  0.42381100  0.40072600  0.58174800  1
  Cu  Cu54  1  0.57618900  0.90072600  0.91825200  1
  Cu  Cu55  1  0.42381100  0.09927400  0.41825200  1
  C  C56  1  0.55812300  0.25000000  0.00000000  1
  C  C57  1  0.44187700  0.75000000  0.50000000  1
  C  C58  1  0.44187700  0.75000000  0.00000000  1
  C  C59  1  0.55812300  0.25000000  0.50000000  1
  C  C60  1  0.45881400  0.32063300  0.75000000  1
  C  C61  1  0.54118600  0.67936700  0.25000000  1
  C  C62  1  0.45881400  0.17936700  0.25000000  1
  C  C63  1  0.54118600  0.82063300  0.75000000  1
  C  C64  1  0.69217800  0.14024900  0.75000000  1
  C  C65  1  0.30782200  0.85975100  0.25000000  1
  C  C66  1  0.69217800  0.35975100  0.25000000  1
  C  C67  1  0.30782200  0.64024900  0.75000000  1
  C  C68  1  0.11504500  0.26538100  0.84557700  1
  C  C69  1  0.88495500  0.73461900  0.34557700  1
  C  C70  1  0.11504500  0.23461900  0.15442300  1
  C  C71  1  0.88495500  0.76538100  0.65442300  1
  C  C72  1  0.88495500  0.73461900  0.15442300  1
  C  C73  1  0.11504500  0.26538100  0.65442300  1
  C  C74  1  0.88495500  0.76538100  0.84557700  1
  C  C75  1  0.11504500  0.23461900  0.34557700  1
  C  C76  1  0.00798400  0.02505100  0.84327000  1
  C  C77  1  0.99201600  0.97494900  0.34327000  1
  C  C78  1  0.00798400  0.47494900  0.15673000  1
  C  C79  1  0.99201600  0.52505100  0.65673000  1
  C  C80  1  0.99201600  0.97494900  0.15673000  1
  C  C81  1  0.00798400  0.02505100  0.65673000  1
  C  C82  1  0.99201600  0.52505100  0.84327000  1
  C  C83  1  0.00798400  0.47494900  0.34327000  1
  C  C84  1  0.34930700  0.47217600  0.89564500  1
  C  C85  1  0.65069300  0.52782400  0.39564500  1
  C  C86  1  0.34930700  0.02782400  0.10435500  1
  C  C87  1  0.65069300  0.97217600  0.60435500  1
  C  C88  1  0.65069300  0.52782400  0.10435500  1
  C  C89  1  0.34930700  0.47217600  0.60435500  1
  C  C90  1  0.65069300  0.97217600  0.89564500  1
  C  C91  1  0.34930700  0.02782400  0.39564500  1
