# generated using pymatgen
data_Cu6Ni6C19
_symmetry_space_group_name_H-M   'P 1'
_cell_length_a   6.52850800
_cell_length_b   12.67371100
_cell_length_c   12.81346475
_cell_angle_alpha   85.32923055
_cell_angle_beta   90.00000000
_cell_angle_gamma   90.00000000
_symmetry_Int_Tables_number   1
_chemical_formula_structural   Cu6Ni6C19
_chemical_formula_sum   'Cu24 Ni24 C76'
_cell_volume   1056.67066932
_cell_formula_units_Z   4
loop_
 _symmetry_equiv_pos_site_id
 _symmetry_equiv_pos_as_xyz
  1  'x, y, z'
loop_
 _atom_site_type_symbol
 _atom_site_label
 _atom_site_symmetry_multiplicity
 _atom_site_fract_x
 _atom_site_fract_y
 _atom_site_fract_z
 _atom_site_occupancy
  C  C0  1  0.00000000  0.00000000  0.50000000  1
  C  C1  1  0.50000000  0.00000000  0.00000000  1
  C  C2  1  0.00000000  0.50000000  0.50000000  1
  C  C3  1  0.50000000  0.50000000  0.00000000  1
  C  C4  1  0.46451600  0.76906200  0.69315900  1
  C  C5  1  0.03548400  0.76906200  0.19315900  1
  C  C6  1  0.96451600  0.23093800  0.80684100  1
  C  C7  1  0.53548400  0.23093800  0.30684100  1
  C  C8  1  0.40831100  0.97120600  0.63088200  1
  C  C9  1  0.64868500  0.95484300  0.62359900  1
  C  C10  1  0.09168900  0.97120600  0.13088200  1
  C  C11  1  0.85131500  0.95484300  0.12359900  1
  C  C12  1  0.21746400  0.87303000  0.80666000  1
  C  C13  1  0.09742500  0.85790400  0.69893500  1
  C  C14  1  0.63053300  0.84641500  0.86074700  1
  C  C15  1  0.28253600  0.87303000  0.30666000  1
  C  C16  1  0.40257500  0.85790400  0.19893500  1
  C  C17  1  0.86946700  0.84641500  0.36074700  1
  C  C18  1  0.30252700  0.82888600  0.50646100  1
  C  C19  1  0.19747300  0.82888600  0.00646100  1
  C  C20  1  0.82719900  0.77080300  0.61099100  1
  C  C21  1  0.53994200  0.73124500  0.89549000  1
  C  C22  1  0.67280100  0.77080300  0.11099100  1
  C  C23  1  0.96005800  0.73124500  0.39549000  1
  C  C24  1  0.99638500  0.68606700  0.94072200  1
  C  C25  1  0.23205100  0.71146000  0.53342100  1
  C  C26  1  0.02034800  0.68841100  0.81123200  1
  C  C27  1  0.50361500  0.68606700  0.44072200  1
  C  C28  1  0.26794900  0.71146000  0.03342100  1
  C  C29  1  0.47965200  0.68841100  0.31123200  1
  C  C30  1  0.75142000  0.64927500  0.60862800  1
  C  C31  1  0.84051900  0.60882700  0.87247700  1
  C  C32  1  0.74858000  0.64927500  0.10862800  1
  C  C33  1  0.09330000  0.57932600  0.88948200  1
  C  C34  1  0.45062200  0.57088800  0.77840300  1
  C  C35  1  0.65948100  0.60882700  0.37247700  1
  C  C36  1  0.27624200  0.57358100  0.68906600  1
  C  C37  1  0.40670000  0.57932600  0.38948200  1
  C  C38  1  0.04937800  0.57088800  0.27840300  1
  C  C39  1  0.22375800  0.57358100  0.18906600  1
  C  C40  1  0.77624200  0.42641900  0.81093400  1
  C  C41  1  0.95062200  0.42911200  0.72159700  1
  C  C42  1  0.59330000  0.42067400  0.61051800  1
  C  C43  1  0.72375800  0.42641900  0.31093400  1
  C  C44  1  0.34051900  0.39117300  0.62752300  1
  C  C45  1  0.54937800  0.42911200  0.22159700  1
  C  C46  1  0.90670000  0.42067400  0.11051800  1
  C  C47  1  0.25142000  0.35072500  0.89137200  1
  C  C48  1  0.15948100  0.39117300  0.12752300  1
  C  C49  1  0.24858000  0.35072500  0.39137200  1
  C  C50  1  0.52034800  0.31158900  0.68876800  1
  C  C51  1  0.73205100  0.28854000  0.96657900  1
  C  C52  1  0.49638500  0.31393300  0.55927800  1
  C  C53  1  0.97965200  0.31158900  0.18876800  1
  C  C54  1  0.76794900  0.28854000  0.46657900  1
  C  C55  1  0.00361500  0.31393300  0.05927800  1
  C  C56  1  0.03994200  0.26875500  0.60451000  1
  C  C57  1  0.32719900  0.22919700  0.88900900  1
  C  C58  1  0.46005800  0.26875500  0.10451000  1
  C  C59  1  0.17280100  0.22919700  0.38900900  1
  C  C60  1  0.80252700  0.17111400  0.99353900  1
  C  C61  1  0.69747300  0.17111400  0.49353900  1
  C  C62  1  0.13053300  0.15358500  0.63925300  1
  C  C63  1  0.59742500  0.14209600  0.80106500  1
  C  C64  1  0.71746400  0.12697000  0.69334000  1
  C  C65  1  0.36946700  0.15358500  0.13925300  1
  C  C66  1  0.90257500  0.14209600  0.30106500  1
  C  C67  1  0.78253600  0.12697000  0.19334000  1
  C  C68  1  0.14868500  0.04515700  0.87640100  1
  C  C69  1  0.90831100  0.02879400  0.86911800  1
  C  C70  1  0.35131500  0.04515700  0.37640100  1
  C  C71  1  0.59168900  0.02879400  0.36911800  1
  C  C72  1  0.98595500  0.63998100  0.87757300  1
  C  C73  1  0.51404500  0.63998100  0.37757300  1
  C  C74  1  0.48595500  0.36001900  0.62242700  1
  C  C75  1  0.01404500  0.36001900  0.12242700  1
  Ni  Ni76  1  0.52452800  0.92753500  0.65948800  1
  Ni  Ni77  1  0.97547200  0.92753500  0.15948800  1
  Ni  Ni78  1  0.18525700  0.82235900  0.75464300  1
  Ni  Ni79  1  0.31474300  0.82235900  0.25464300  1
  Ni  Ni80  1  0.60456000  0.77470100  0.83713800  1
  Ni  Ni81  1  0.34968500  0.76024500  0.54197500  1
  Ni  Ni82  1  0.89544000  0.77470100  0.33713800  1
  Ni  Ni83  1  0.15031500  0.76024500  0.04197500  1
  Ni  Ni84  1  0.74438600  0.71356400  0.64721700  1
  Ni  Ni85  1  0.75561400  0.71356400  0.14721700  1
  Ni  Ni86  1  0.36106300  0.61728900  0.73264800  1
  Ni  Ni87  1  0.13893700  0.61728900  0.23264800  1
  Ni  Ni88  1  0.86106300  0.38271100  0.76735200  1
  Ni  Ni89  1  0.63893700  0.38271100  0.26735200  1
  Ni  Ni90  1  0.24438600  0.28643600  0.85278300  1
  Ni  Ni91  1  0.25561400  0.28643600  0.35278300  1
  Ni  Ni92  1  0.84968500  0.23975500  0.95802500  1
  Ni  Ni93  1  0.10456000  0.22529900  0.66286200  1
  Ni  Ni94  1  0.65031500  0.23975500  0.45802500  1
  Ni  Ni95  1  0.39544000  0.22529900  0.16286200  1
  Ni  Ni96  1  0.68525700  0.17764100  0.74535700  1
  Ni  Ni97  1  0.81474300  0.17764100  0.24535700  1
  Ni  Ni98  1  0.02452800  0.07246500  0.84051200  1
  Ni  Ni99  1  0.47547200  0.07246500  0.34051200  1
  Cu  Cu100  1  0.69623600  0.95726900  0.91055000  1
  Cu  Cu101  1  0.29835100  0.92913600  0.93134500  1
  Cu  Cu102  1  0.80376400  0.95726900  0.41055000  1
  Cu  Cu103  1  0.20164900  0.92913600  0.43134500  1
  Cu  Cu104  1  0.95582100  0.88245600  0.58999000  1
  Cu  Cu105  1  0.54417900  0.88245600  0.08999000  1
  Cu  Cu106  1  0.44441400  0.64159700  0.98724300  1
  Cu  Cu107  1  0.05558600  0.64159700  0.48724300  1
  Cu  Cu108  1  0.61932500  0.51229100  0.86748800  1
  Cu  Cu109  1  0.75280400  0.52773500  0.55867500  1
  Cu  Cu110  1  0.25280400  0.47226500  0.94132500  1
  Cu  Cu111  1  0.11932500  0.48770900  0.63251200  1
  Cu  Cu112  1  0.88067500  0.51229100  0.36748800  1
  Cu  Cu113  1  0.74719600  0.52773500  0.05867500  1
  Cu  Cu114  1  0.24719600  0.47226500  0.44132500  1
  Cu  Cu115  1  0.38067500  0.48770900  0.13251200  1
  Cu  Cu116  1  0.94441400  0.35840300  0.51275700  1
  Cu  Cu117  1  0.55558600  0.35840300  0.01275700  1
  Cu  Cu118  1  0.45582100  0.11754400  0.91001000  1
  Cu  Cu119  1  0.04417900  0.11754400  0.41001000  1
  Cu  Cu120  1  0.79835100  0.07086400  0.56865500  1
  Cu  Cu121  1  0.19623600  0.04273100  0.58945000  1
  Cu  Cu122  1  0.70164900  0.07086400  0.06865500  1
  Cu  Cu123  1  0.30376400  0.04273100  0.08945000  1
