# generated using pymatgen
data_CuNiC10
_symmetry_space_group_name_H-M   'P 1'
_cell_length_a   10.03237400
_cell_length_b   10.21065200
_cell_length_c   13.82228300
_cell_angle_alpha   90.00000000
_cell_angle_beta   90.00000000
_cell_angle_gamma   90.00000000
_symmetry_Int_Tables_number   1
_chemical_formula_structural   CuNiC10
_chemical_formula_sum   'Cu8 Ni8 C80'
_cell_volume   1415.91430459
_cell_formula_units_Z   8
loop_
 _symmetry_equiv_pos_site_id
 _symmetry_equiv_pos_as_xyz
  1  'x, y, z'
loop_
 _atom_site_type_symbol
 _atom_site_label
 _atom_site_symmetry_multiplicity
 _atom_site_fract_x
 _atom_site_fract_y
 _atom_site_fract_z
 _atom_site_occupancy
  Ni  Ni0  1  0.07996800  0.22998800  0.47622100  1
  Ni  Ni1  1  0.42003200  0.72998800  0.52377900  1
  Ni  Ni2  1  0.57996800  0.77001200  0.02377900  1
  Ni  Ni3  1  0.92003200  0.27001200  0.97622100  1
  Ni  Ni4  1  0.92003200  0.77001200  0.52377900  1
  Ni  Ni5  1  0.57996800  0.27001200  0.47622100  1
  Ni  Ni6  1  0.42003200  0.22998800  0.97622100  1
  Ni  Ni7  1  0.07996800  0.72998800  0.02377900  1
  Cu  Cu8  1  0.12040700  0.54516500  0.37447200  1
  Cu  Cu9  1  0.37959300  0.04516500  0.62552800  1
  Cu  Cu10  1  0.62040700  0.45483500  0.12552800  1
  Cu  Cu11  1  0.87959300  0.95483500  0.87447200  1
  Cu  Cu12  1  0.87959300  0.45483500  0.62552800  1
  Cu  Cu13  1  0.62040700  0.95483500  0.37447200  1
  Cu  Cu14  1  0.37959300  0.54516500  0.87447200  1
  Cu  Cu15  1  0.12040700  0.04516500  0.12552800  1
  C  C16  1  0.36618200  0.26269700  0.29595300  1
  C  C17  1  0.13381800  0.76269700  0.70404700  1
  C  C18  1  0.86618200  0.73730300  0.20404700  1
  C  C19  1  0.63381800  0.23730300  0.79595300  1
  C  C20  1  0.63381800  0.73730300  0.70404700  1
  C  C21  1  0.86618200  0.23730300  0.29595300  1
  C  C22  1  0.13381800  0.26269700  0.79595300  1
  C  C23  1  0.36618200  0.76269700  0.20404700  1
  C  C24  1  0.71272100  0.58195000  0.41850400  1
  C  C25  1  0.78727900  0.08195000  0.58149600  1
  C  C26  1  0.21272100  0.41805000  0.08149600  1
  C  C27  1  0.28727900  0.91805000  0.91850400  1
  C  C28  1  0.28727900  0.41805000  0.58149600  1
  C  C29  1  0.21272100  0.91805000  0.41850400  1
  C  C30  1  0.78727900  0.58195000  0.91850400  1
  C  C31  1  0.71272100  0.08195000  0.08149600  1
  C  C32  1  0.29531100  0.18894000  0.18921300  1
  C  C33  1  0.20468900  0.68894000  0.81078700  1
  C  C34  1  0.79531100  0.81106000  0.31078700  1
  C  C35  1  0.70468900  0.31106000  0.68921300  1
  C  C36  1  0.70468900  0.81106000  0.81078700  1
  C  C37  1  0.79531100  0.31106000  0.18921300  1
  C  C38  1  0.20468900  0.18894000  0.68921300  1
  C  C39  1  0.29531100  0.68894000  0.31078700  1
  C  C40  1  0.48434400  0.38276400  0.25854600  1
  C  C41  1  0.01565600  0.88276400  0.74145400  1
  C  C42  1  0.98434400  0.61723600  0.24145400  1
  C  C43  1  0.51565600  0.11723600  0.75854600  1
  C  C44  1  0.51565600  0.61723600  0.74145400  1
  C  C45  1  0.98434400  0.11723600  0.25854600  1
  C  C46  1  0.01565600  0.38276400  0.75854600  1
  C  C47  1  0.48434400  0.88276400  0.24145400  1
  C  C48  1  0.24457400  0.33166300  0.37807500  1
  C  C49  1  0.25542600  0.83166300  0.62192500  1
  C  C50  1  0.74457400  0.66833700  0.12192500  1
  C  C51  1  0.75542600  0.16833700  0.87807500  1
  C  C52  1  0.75542600  0.66833700  0.62192500  1
  C  C53  1  0.74457400  0.16833700  0.37807500  1
  C  C54  1  0.25542600  0.33166300  0.87807500  1
  C  C55  1  0.24457400  0.83166300  0.12192500  1
  C  C56  1  0.45921500  0.14541600  0.36450000  1
  C  C57  1  0.04078500  0.64541600  0.63550000  1
  C  C58  1  0.95921500  0.85458400  0.13550000  1
  C  C59  1  0.54078500  0.35458400  0.86450000  1
  C  C60  1  0.54078500  0.85458400  0.63550000  1
  C  C61  1  0.95921500  0.35458400  0.36450000  1
  C  C62  1  0.04078500  0.14541600  0.86450000  1
  C  C63  1  0.45921500  0.64541600  0.13550000  1
  C  C64  1  0.66494600  0.44452300  0.49057000  1
  C  C65  1  0.83505400  0.94452300  0.50943000  1
  C  C66  1  0.16494600  0.55547700  0.00943000  1
  C  C67  1  0.33505400  0.05547700  0.99057000  1
  C  C68  1  0.33505400  0.55547700  0.50943000  1
  C  C69  1  0.16494600  0.05547700  0.49057000  1
  C  C70  1  0.83505400  0.44452300  0.99057000  1
  C  C71  1  0.66494600  0.94452300  0.00943000  1
  C  C72  1  0.70360900  0.53675000  0.29468400  1
  C  C73  1  0.79639100  0.03675000  0.70531600  1
  C  C74  1  0.20360900  0.46325000  0.20531600  1
  C  C75  1  0.29639100  0.96325000  0.79468400  1
  C  C76  1  0.29639100  0.46325000  0.70531600  1
  C  C77  1  0.20360900  0.96325000  0.29468400  1
  C  C78  1  0.79639100  0.53675000  0.79468400  1
  C  C79  1  0.70360900  0.03675000  0.20531600  1
  C  C80  1  0.88846300  0.60172000  0.45544700  1
  C  C81  1  0.61153700  0.10172000  0.54455300  1
  C  C82  1  0.38846300  0.39828000  0.04455300  1
  C  C83  1  0.11153700  0.89828000  0.95544700  1
  C  C84  1  0.11153700  0.39828000  0.54455300  1
  C  C85  1  0.38846300  0.89828000  0.45544700  1
  C  C86  1  0.61153700  0.60172000  0.95544700  1
  C  C87  1  0.88846300  0.10172000  0.04455300  1
  C  C88  1  0.60194500  0.71866200  0.44122300  1
  C  C89  1  0.89805500  0.21866200  0.55877700  1
  C  C90  1  0.10194500  0.28133800  0.05877700  1
  C  C91  1  0.39805500  0.78133800  0.94122300  1
  C  C92  1  0.39805500  0.28133800  0.55877700  1
  C  C93  1  0.10194500  0.78133800  0.44122300  1
  C  C94  1  0.89805500  0.71866200  0.94122300  1
  C  C95  1  0.60194500  0.21866200  0.05877700  1
