# generated using pymatgen
data_CuNiC11
_symmetry_space_group_name_H-M   'P 1'
_cell_length_a   7.41198200
_cell_length_b   5.16651000
_cell_length_c   9.84958232
_cell_angle_alpha   89.21334940
_cell_angle_beta   90.00000000
_cell_angle_gamma   90.00000000
_symmetry_Int_Tables_number   1
_chemical_formula_structural   CuNiC11
_chemical_formula_sum   'Cu2 Ni2 C22'
_cell_volume   377.14513553
_cell_formula_units_Z   2
loop_
 _symmetry_equiv_pos_site_id
 _symmetry_equiv_pos_as_xyz
  1  'x, y, z'
loop_
 _atom_site_type_symbol
 _atom_site_label
 _atom_site_symmetry_multiplicity
 _atom_site_fract_x
 _atom_site_fract_y
 _atom_site_fract_z
 _atom_site_occupancy
  C  C0  1  0.75000000  0.23485800  0.91956300  1
  C  C1  1  0.98342900  0.74604200  0.75268600  1
  C  C2  1  0.51657100  0.74604200  0.75268600  1
  C  C3  1  0.48342900  0.25395800  0.24731400  1
  C  C4  1  0.01657100  0.25395800  0.24731400  1
  C  C5  1  0.25000000  0.76514200  0.08043700  1
  Ni  Ni6  1  0.25000000  0.23375200  0.65387100  1
  Ni  Ni7  1  0.75000000  0.76624800  0.34612900  1
  Cu  Cu8  1  0.75000000  0.27669100  0.59780900  1
  Cu  Cu9  1  0.25000000  0.72330900  0.40219100  1
  C  C10  1  0.25000000  0.27534000  0.95237700  1
  C  C11  1  0.75000000  0.72466000  0.04762300  1
  C  C12  1  0.75000000  0.72307200  0.91596300  1
  C  C13  1  0.25000000  0.05436700  0.88845300  1
  C  C14  1  0.25000000  0.49000900  0.88248100  1
  C  C15  1  0.93819400  0.21735500  0.71233500  1
  C  C16  1  0.56180600  0.21735500  0.71233500  1
  C  C17  1  0.75000000  0.62092800  0.58532600  1
  C  C18  1  0.25000000  0.81129600  0.61088900  1
  C  C19  1  0.75000000  0.18870400  0.38911100  1
  C  C20  1  0.25000000  0.37907200  0.41467400  1
  C  C21  1  0.43819400  0.78264500  0.28766500  1
  C  C22  1  0.06180600  0.78264500  0.28766500  1
  C  C23  1  0.75000000  0.50999100  0.11751900  1
  C  C24  1  0.75000000  0.94563300  0.11154700  1
  C  C25  1  0.25000000  0.27692800  0.08403700  1
