# generated using pymatgen
data_CuNiC6
_symmetry_space_group_name_H-M   'P 1'
_cell_length_a   5.11604400
_cell_length_b   6.40343400
_cell_length_c   10.54040495
_cell_angle_alpha   84.26025859
_cell_angle_beta   90.00000000
_cell_angle_gamma   90.00000000
_symmetry_Int_Tables_number   1
_chemical_formula_structural   CuNiC6
_chemical_formula_sum   'Cu4 Ni4 C24'
_cell_volume   343.57508849
_cell_formula_units_Z   4
loop_
 _symmetry_equiv_pos_site_id
 _symmetry_equiv_pos_as_xyz
  1  'x, y, z'
loop_
 _atom_site_type_symbol
 _atom_site_label
 _atom_site_symmetry_multiplicity
 _atom_site_fract_x
 _atom_site_fract_y
 _atom_site_fract_z
 _atom_site_occupancy
  C  C0  1  0.65083600  0.90130500  0.79327100  1
  C  C1  1  0.84916400  0.90130500  0.29327100  1
  C  C2  1  0.82899800  0.78000100  0.56952500  1
  C  C3  1  0.67100200  0.78000100  0.06952500  1
  C  C4  1  0.32899800  0.21999900  0.93047500  1
  C  C5  1  0.17100200  0.21999900  0.43047500  1
  C  C6  1  0.15083600  0.09869500  0.70672900  1
  C  C7  1  0.34916400  0.09869500  0.20672900  1
  Ni  Ni8  1  0.85539800  0.49882100  0.84580600  1
  Ni  Ni9  1  0.35539800  0.50117900  0.65419400  1
  Ni  Ni10  1  0.64460200  0.49882100  0.34580600  1
  Ni  Ni11  1  0.14460200  0.50117900  0.15419400  1
  Cu  Cu12  1  0.17773200  0.80542900  0.93940600  1
  Cu  Cu13  1  0.32226800  0.80542900  0.43940600  1
  Cu  Cu14  1  0.67773200  0.19457100  0.56059400  1
  Cu  Cu15  1  0.82226800  0.19457100  0.06059400  1
  C  C16  1  0.30277000  0.94813200  0.85876300  1
  C  C17  1  0.19723000  0.94813200  0.35876300  1
  C  C18  1  0.91219900  0.75294800  0.92131400  1
  C  C19  1  0.58780100  0.75294800  0.42131400  1
  C  C20  1  0.19283300  0.70836100  0.54569100  1
  C  C21  1  0.64754600  0.61809200  0.71480200  1
  C  C22  1  0.30716700  0.70836100  0.04569100  1
  C  C23  1  0.85245400  0.61809200  0.21480200  1
  C  C24  1  0.14754600  0.38190800  0.78519800  1
  C  C25  1  0.69283300  0.29163900  0.95430900  1
  C  C26  1  0.35245400  0.38190800  0.28519800  1
  C  C27  1  0.80716700  0.29163900  0.45430900  1
  C  C28  1  0.41219900  0.24705200  0.57868600  1
  C  C29  1  0.08780100  0.24705200  0.07868600  1
  C  C30  1  0.80277000  0.05186800  0.64123700  1
  C  C31  1  0.69723000  0.05186800  0.14123700  1
