# generated using pymatgen
data_Cu2NiC6
_symmetry_space_group_name_H-M   'P 1'
_cell_length_a   6.53459873
_cell_length_b   6.53459873
_cell_length_c   5.82630610
_cell_angle_alpha   78.15430582
_cell_angle_beta   78.15430582
_cell_angle_gamma   26.15300380
_symmetry_Int_Tables_number   1
_chemical_formula_structural   Cu2NiC6
_chemical_formula_sum   'Cu2 Ni1 C6'
_cell_volume   107.19592384
_cell_formula_units_Z   1
loop_
 _symmetry_equiv_pos_site_id
 _symmetry_equiv_pos_as_xyz
  1  'x, y, z'
loop_
 _atom_site_type_symbol
 _atom_site_label
 _atom_site_symmetry_multiplicity
 _atom_site_fract_x
 _atom_site_fract_y
 _atom_site_fract_z
 _atom_site_occupancy
  Ni  Ni0  1  0.00000000  0.00000000  0.50000000  1
  Cu  Cu1  1  0.66738100  0.66738100  0.16501200  1
  Cu  Cu2  1  0.33261900  0.33261900  0.83498800  1
  C  C3  1  0.15886300  0.15886300  0.38550900  1
  C  C4  1  0.82228300  0.82228300  0.05751200  1
  C  C5  1  0.84113700  0.84113700  0.61449100  1
  C  C6  1  0.48807500  0.48807500  0.72761900  1
  C  C7  1  0.51192500  0.51192500  0.27238100  1
  C  C8  1  0.17771700  0.17771700  0.94248800  1
