# generated using pymatgen
data_Cu(NiC3)2
_symmetry_space_group_name_H-M   'P 1'
_cell_length_a   6.14464500
_cell_length_b   8.46494800
_cell_length_c   8.64857800
_cell_angle_alpha   90.00000000
_cell_angle_beta   90.00000000
_cell_angle_gamma   90.00000000
_symmetry_Int_Tables_number   1
_chemical_formula_structural   Cu(NiC3)2
_chemical_formula_sum   'Cu4 Ni8 C24'
_cell_volume   449.84800444
_cell_formula_units_Z   4
loop_
 _symmetry_equiv_pos_site_id
 _symmetry_equiv_pos_as_xyz
  1  'x, y, z'
loop_
 _atom_site_type_symbol
 _atom_site_label
 _atom_site_symmetry_multiplicity
 _atom_site_fract_x
 _atom_site_fract_y
 _atom_site_fract_z
 _atom_site_occupancy
  Ni  Ni0  1  0.74644500  0.00000000  0.50000000  1
  Ni  Ni1  1  0.75355500  0.50000000  0.00000000  1
  Ni  Ni2  1  0.25355500  0.00000000  0.50000000  1
  Ni  Ni3  1  0.24644500  0.50000000  0.00000000  1
  Ni  Ni4  1  0.50000000  0.13332600  0.13286900  1
  Ni  Ni5  1  0.50000000  0.86667400  0.86713100  1
  Ni  Ni6  1  0.00000000  0.63332600  0.36713100  1
  Ni  Ni7  1  0.00000000  0.36667400  0.63286900  1
  Cu  Cu8  1  0.00000000  0.24963800  0.25575500  1
  Cu  Cu9  1  0.00000000  0.75036200  0.74424500  1
  Cu  Cu10  1  0.50000000  0.74963800  0.24424500  1
  Cu  Cu11  1  0.50000000  0.25036200  0.75575500  1
  C  C12  1  0.50000000  0.21313400  0.40694000  1
  C  C13  1  0.50000000  0.78686600  0.59306000  1
  C  C14  1  0.00000000  0.71313400  0.09306000  1
  C  C15  1  0.00000000  0.28686600  0.90694000  1
  C  C16  1  0.00000000  0.07163000  0.35546300  1
  C  C17  1  0.00000000  0.92837000  0.64453700  1
  C  C18  1  0.50000000  0.57163000  0.14453700  1
  C  C19  1  0.50000000  0.42837000  0.85546300  1
  C  C20  1  0.50000000  0.10528500  0.36907300  1
  C  C21  1  0.50000000  0.89471500  0.63092700  1
  C  C22  1  0.00000000  0.60528500  0.13092700  1
  C  C23  1  0.00000000  0.39471500  0.86907300  1
  C  C24  1  0.00000000  0.39435400  0.39617600  1
  C  C25  1  0.00000000  0.60564600  0.60382400  1
  C  C26  1  0.50000000  0.89435400  0.10382400  1
  C  C27  1  0.50000000  0.10564600  0.89617600  1
  C  C28  1  0.77515200  0.27089400  0.13738300  1
  C  C29  1  0.77515200  0.72910600  0.86261700  1
  C  C30  1  0.72484800  0.77089400  0.36261700  1
  C  C31  1  0.72484800  0.22910600  0.63738300  1
  C  C32  1  0.22484800  0.72910600  0.86261700  1
  C  C33  1  0.22484800  0.27089400  0.13738300  1
  C  C34  1  0.27515200  0.22910600  0.63738300  1
  C  C35  1  0.27515200  0.77089400  0.36261700  1
