# generated using pymatgen
data_Cu3NiC2
_symmetry_space_group_name_H-M   'P 1'
_cell_length_a   4.67680914
_cell_length_b   4.67680914
_cell_length_c   15.90124200
_cell_angle_alpha   90.00000000
_cell_angle_beta   90.00000000
_cell_angle_gamma   93.40981506
_symmetry_Int_Tables_number   1
_chemical_formula_structural   Cu3NiC2
_chemical_formula_sum   'Cu15 Ni5 C10'
_cell_volume   347.18488398
_cell_formula_units_Z   5
loop_
 _symmetry_equiv_pos_site_id
 _symmetry_equiv_pos_as_xyz
  1  'x, y, z'
loop_
 _atom_site_type_symbol
 _atom_site_label
 _atom_site_symmetry_multiplicity
 _atom_site_fract_x
 _atom_site_fract_y
 _atom_site_fract_z
 _atom_site_occupancy
  C  C0  1  0.97598300  0.97598300  0.89984500  1
  C  C1  1  0.97598300  0.97598300  0.10015500  1
  C  C2  1  0.02457600  0.02457600  0.29986700  1
  C  C3  1  0.01768800  0.01768800  0.50000000  1
  C  C4  1  0.02457600  0.02457600  0.70013300  1
  C  C5  1  0.52006500  0.52006500  0.00000000  1
  C  C6  1  0.48069700  0.48069700  0.39989100  1
  C  C7  1  0.50006800  0.50006800  0.20001100  1
  C  C8  1  0.50006800  0.50006800  0.79998900  1
  C  C9  1  0.48069700  0.48069700  0.60010900  1
  Ni  Ni10  1  0.29649400  0.29649400  0.50000000  1
  Ni  Ni11  1  0.30213100  0.30213100  0.70215000  1
  Ni  Ni12  1  0.30213100  0.30213100  0.29785000  1
  Ni  Ni13  1  0.69826600  0.69826600  0.89788100  1
  Ni  Ni14  1  0.69826600  0.69826600  0.10211900  1
  Cu  Cu15  1  0.80600600  0.19514100  0.00000000  1
  Cu  Cu16  1  0.80363500  0.19296400  0.39981500  1
  Cu  Cu17  1  0.80606400  0.19438200  0.20004600  1
  Cu  Cu18  1  0.80363500  0.19296400  0.60018500  1
  Cu  Cu19  1  0.80606400  0.19438200  0.79995400  1
  Cu  Cu20  1  0.28896900  0.28896900  0.90162300  1
  Cu  Cu21  1  0.28896900  0.28896900  0.09837700  1
  Cu  Cu22  1  0.71134900  0.71134900  0.30170300  1
  Cu  Cu23  1  0.70643300  0.70643300  0.50000000  1
  Cu  Cu24  1  0.71134900  0.71134900  0.69829700  1
  Cu  Cu25  1  0.19514100  0.80600600  0.00000000  1
  Cu  Cu26  1  0.19296400  0.80363500  0.39981500  1
  Cu  Cu27  1  0.19438200  0.80606400  0.20004600  1
  Cu  Cu28  1  0.19438200  0.80606400  0.79995400  1
  Cu  Cu29  1  0.19296400  0.80363500  0.60018500  1
