# generated using pymatgen
data_Cu7Ni2C15
_symmetry_space_group_name_H-M   'P 1'
_cell_length_a   6.98958600
_cell_length_b   9.10706900
_cell_length_c   14.23136000
_cell_angle_alpha   90.00000000
_cell_angle_beta   90.00000000
_cell_angle_gamma   90.00000000
_symmetry_Int_Tables_number   1
_chemical_formula_structural   Cu7Ni2C15
_chemical_formula_sum   'Cu28 Ni8 C60'
_cell_volume   905.89212574
_cell_formula_units_Z   4
loop_
 _symmetry_equiv_pos_site_id
 _symmetry_equiv_pos_as_xyz
  1  'x, y, z'
loop_
 _atom_site_type_symbol
 _atom_site_label
 _atom_site_symmetry_multiplicity
 _atom_site_fract_x
 _atom_site_fract_y
 _atom_site_fract_z
 _atom_site_occupancy
  C  C0  1  0.87963400  0.63626800  0.24923900  1
  C  C1  1  0.12036600  0.13626800  0.75076100  1
  C  C2  1  0.87963400  0.13626800  0.25076100  1
  C  C3  1  0.12036600  0.63626800  0.74923900  1
  C  C4  1  0.93742500  0.60574200  0.13003000  1
  C  C5  1  0.06257500  0.10574200  0.86997000  1
  C  C6  1  0.93742500  0.10574200  0.36997000  1
  C  C7  1  0.06257500  0.60574200  0.63003000  1
  C  C8  1  0.06336800  0.79937300  0.33372100  1
  C  C9  1  0.93663200  0.29937300  0.66627900  1
  C  C10  1  0.06336800  0.29937300  0.16627900  1
  C  C11  1  0.93663200  0.79937300  0.83372100  1
  C  C12  1  0.30833000  0.82181900  0.30717700  1
  C  C13  1  0.69167000  0.32181900  0.69282300  1
  C  C14  1  0.30833000  0.32181900  0.19282300  1
  C  C15  1  0.69167000  0.82181900  0.80717700  1
  C  C16  1  0.25651200  0.61116800  0.09231900  1
  C  C17  1  0.74348800  0.11116800  0.90768100  1
  C  C18  1  0.25651200  0.11116800  0.40768100  1
  C  C19  1  0.74348800  0.61116800  0.59231900  1
  C  C20  1  0.67666700  0.80087600  0.04408300  1
  C  C21  1  0.32333300  0.30087600  0.95591700  1
  C  C22  1  0.67666700  0.30087600  0.45591700  1
  C  C23  1  0.32333300  0.80087600  0.54408300  1
  C  C24  1  0.59149800  0.62344700  0.07593800  1
  C  C25  1  0.40850200  0.12344700  0.92406200  1
  C  C26  1  0.59149800  0.12344700  0.42406200  1
  C  C27  1  0.40850200  0.62344700  0.57593800  1
  C  C28  1  0.28100500  0.98198500  0.14622700  1
  C  C29  1  0.71899500  0.48198500  0.85377300  1
  C  C30  1  0.28100500  0.48198500  0.35377300  1
  C  C31  1  0.71899500  0.98198500  0.64622700  1
  C  C32  1  0.52732500  0.00266600  0.12853500  1
  C  C33  1  0.47267500  0.50266600  0.87146500  1
  C  C34  1  0.52732500  0.50266600  0.37146500  1
  C  C35  1  0.47267500  0.00266600  0.62853500  1
  Ni  Ni36  1  0.14072700  0.71198900  0.20892900  1
  Ni  Ni37  1  0.85927300  0.21198900  0.79107100  1
  Ni  Ni38  1  0.14072700  0.21198900  0.29107100  1
  Ni  Ni39  1  0.85927300  0.71198900  0.70892900  1
  Ni  Ni40  1  0.42453300  0.79304000  0.11748000  1
  Ni  Ni41  1  0.57546700  0.29304000  0.88252000  1
  Ni  Ni42  1  0.42453300  0.29304000  0.38252000  1
  Ni  Ni43  1  0.57546700  0.79304000  0.61748000  1
  Cu  Cu44  1  0.97677100  0.64184300  0.19561500  1
  Cu  Cu45  1  0.02322900  0.14184300  0.80438500  1
  Cu  Cu46  1  0.97677100  0.14184300  0.30438500  1
  Cu  Cu47  1  0.02322900  0.64184300  0.69561500  1
  Cu  Cu48  1  0.17545100  0.78349600  0.28829700  1
  Cu  Cu49  1  0.82454900  0.28349500  0.71170300  1
  Cu  Cu50  1  0.17545100  0.28349500  0.21170300  1
  Cu  Cu51  1  0.82454900  0.78349600  0.78829700  1
  Cu  Cu52  1  0.27629400  0.69889600  0.13870100  1
  Cu  Cu53  1  0.72370600  0.19889600  0.86129900  1
  Cu  Cu54  1  0.27629400  0.19889600  0.36129900  1
  Cu  Cu55  1  0.72370600  0.69889600  0.63870100  1
  Cu  Cu56  1  0.57204700  0.73502300  0.07235500  1
  Cu  Cu57  1  0.42795300  0.23502300  0.92764500  1
  Cu  Cu58  1  0.57204700  0.23502300  0.42764500  1
  Cu  Cu59  1  0.42795300  0.73502300  0.57235500  1
  Cu  Cu60  1  0.41335400  0.93503700  0.13922100  1
  Cu  Cu61  1  0.58664600  0.43503700  0.86077900  1
  Cu  Cu62  1  0.41335400  0.43503700  0.36077900  1
  Cu  Cu63  1  0.58664600  0.93503700  0.63922100  1
  Cu  Cu64  1  0.04381600  0.02250600  0.54384700  1
  Cu  Cu65  1  0.95618400  0.52250600  0.45615300  1
  Cu  Cu66  1  0.04381600  0.52250600  0.95615300  1
  Cu  Cu67  1  0.95618400  0.02250600  0.04384700  1
  Cu  Cu68  1  0.34105600  0.82109900  0.86065800  1
  Cu  Cu69  1  0.65894400  0.32109900  0.13934200  1
  Cu  Cu70  1  0.34105600  0.32109900  0.63934200  1
  Cu  Cu71  1  0.65894400  0.82109900  0.36065800  1
  C  C72  1  0.01824700  0.97197400  0.62525700  1
  C  C73  1  0.98175300  0.47197400  0.37474300  1
  C  C74  1  0.01824700  0.47197400  0.87474300  1
  C  C75  1  0.98175300  0.97197400  0.12525700  1
  C  C76  1  0.92513200  0.10891800  0.50713300  1
  C  C77  1  0.07486800  0.60891800  0.49286700  1
  C  C78  1  0.92513200  0.60891800  0.99286700  1
  C  C79  1  0.07486800  0.10891800  0.00713300  1
  C  C80  1  0.19507000  0.98475300  0.49784100  1
  C  C81  1  0.80493000  0.48475300  0.50215900  1
  C  C82  1  0.19507000  0.48475300  0.00215900  1
  C  C83  1  0.80493000  0.98475300  0.99784100  1
  C  C84  1  0.47017700  0.91811700  0.87203600  1
  C  C85  1  0.52982300  0.41811700  0.12796400  1
  C  C86  1  0.47017700  0.41811700  0.62796400  1
  C  C87  1  0.52982300  0.91811700  0.37203600  1
  C  C88  1  0.17795700  0.83822300  0.89680600  1
  C  C89  1  0.82204300  0.33822300  0.10319400  1
  C  C90  1  0.17795700  0.33822300  0.60319400  1
  C  C91  1  0.82204300  0.83822300  0.39680600  1
  C  C92  1  0.37916800  0.70684100  0.81248500  1
  C  C93  1  0.62083200  0.20684100  0.18751500  1
  C  C94  1  0.37916800  0.20684100  0.68751500  1
  C  C95  1  0.62083200  0.70684100  0.31248500  1
