# generated using pymatgen
data_Cu3NiC20
_symmetry_space_group_name_H-M   'P 1'
_cell_length_a   5.22682200
_cell_length_b   5.22740748
_cell_length_c   20.79582749
_cell_angle_alpha   89.13321145
_cell_angle_beta   91.78225438
_cell_angle_gamma   119.75976104
_symmetry_Int_Tables_number   1
_chemical_formula_structural   Cu3NiC20
_chemical_formula_sum   'Cu6 Ni2 C40'
_cell_volume   493.02278617
_cell_formula_units_Z   2
loop_
 _symmetry_equiv_pos_site_id
 _symmetry_equiv_pos_as_xyz
  1  'x, y, z'
loop_
 _atom_site_type_symbol
 _atom_site_label
 _atom_site_symmetry_multiplicity
 _atom_site_fract_x
 _atom_site_fract_y
 _atom_site_fract_z
 _atom_site_occupancy
  C  C0  1  0.65486800  0.98149400  0.33320700  1
  C  C1  1  0.67131100  0.02143500  0.08515000  1
  C  C2  1  0.65618200  0.97593700  0.83272500  1
  C  C3  1  0.67133500  0.01757000  0.58238500  1
  C  C4  1  0.33958400  0.98467400  0.20899400  1
  C  C5  1  0.35275400  0.01563100  0.45744000  1
  C  C6  1  0.34562600  0.98512700  0.70682900  1
  C  C7  1  0.34297600  0.01077900  0.95926800  1
  Ni  Ni8  1  0.00129100  0.33687400  0.94314100  1
  Ni  Ni9  1  0.32964800  0.32481700  0.81677600  1
  Cu  Cu10  1  0.00144000  0.33502500  0.44241500  1
  Cu  Cu11  1  0.99160900  0.67991800  0.06862500  1
  Cu  Cu12  1  0.99694200  0.67928700  0.56540800  1
  Cu  Cu13  1  0.31901700  0.32767200  0.31769900  1
  Cu  Cu14  1  0.66627300  0.66327400  0.19365700  1
  Cu  Cu15  1  0.66999300  0.65884400  0.68984300  1
  C  C16  1  0.33148000  0.33780000  0.06509100  1
  C  C17  1  0.33084100  0.33544400  0.56199200  1
  C  C18  1  0.00886200  0.33452400  0.18854500  1
  C  C19  1  0.01154900  0.33604300  0.68558000  1
  C  C20  1  0.99847500  0.66614800  0.31325700  1
  C  C21  1  0.00040800  0.65928700  0.81143400  1
  C  C22  1  0.67320200  0.66673200  0.43757600  1
  C  C23  1  0.66443900  0.66569700  0.93912600  1
  C  C24  1  0.25786100  0.31731800  0.20858400  1
  C  C25  1  0.26174400  0.32180800  0.70642200  1
  C  C26  1  0.06371600  0.32662800  0.04980900  1
  C  C27  1  0.57631000  0.60358000  0.08414000  1
  C  C28  1  0.06146800  0.32171400  0.54719100  1
  C  C29  1  0.57661700  0.60099100  0.58051200  1
  C  C30  1  0.03173100  0.60732000  0.17469800  1
  C  C31  1  0.65802400  0.92320000  0.43049900  1
  C  C32  1  0.03504800  0.60944000  0.67121900  1
  C  C33  1  0.63824100  0.91471800  0.93102000  1
  C  C34  1  0.73829000  0.07920000  0.18173200  1
  C  C35  1  0.74292900  0.08030500  0.67828200  1
  C  C36  1  0.27223900  0.91780000  0.30802500  1
  C  C37  1  0.27629500  0.90438700  0.80456000  1
  C  C38  1  0.35383600  0.08521300  0.05909100  1
  C  C39  1  0.97768400  0.39902500  0.33225900  1
  C  C40  1  0.35344200  0.08266800  0.55652800  1
  C  C41  1  0.96943100  0.39124700  0.83292100  1
  C  C42  1  0.42442400  0.39494700  0.42360800  1
  C  C43  1  0.42285200  0.38842000  0.92368500  1
  C  C44  1  0.93864400  0.68307400  0.45755200  1
  C  C45  1  0.92945300  0.68820800  0.96083500  1
  C  C46  1  0.74165100  0.67750500  0.29849100  1
  C  C47  1  0.74916700  0.68125400  0.79597000  1
