# generated using pymatgen
data_CuNi2C15
_symmetry_space_group_name_H-M   'P 1'
_cell_length_a   8.46932489
_cell_length_b   8.46932489
_cell_length_c   8.46932524
_cell_angle_alpha   60.90578723
_cell_angle_beta   60.90578723
_cell_angle_gamma   60.90578438
_symmetry_Int_Tables_number   1
_chemical_formula_structural   CuNi2C15
_chemical_formula_sum   'Cu2 Ni4 C30'
_cell_volume   438.33740111
_cell_formula_units_Z   2
loop_
 _symmetry_equiv_pos_site_id
 _symmetry_equiv_pos_as_xyz
  1  'x, y, z'
loop_
 _atom_site_type_symbol
 _atom_site_label
 _atom_site_symmetry_multiplicity
 _atom_site_fract_x
 _atom_site_fract_y
 _atom_site_fract_z
 _atom_site_occupancy
  Ni  Ni0  1  0.85625900  0.85625900  0.85625900  1
  Ni  Ni1  1  0.64374100  0.64374100  0.64374100  1
  Ni  Ni2  1  0.35625900  0.35625900  0.35625900  1
  Ni  Ni3  1  0.14374100  0.14374100  0.14374100  1
  Cu  Cu4  1  0.00000000  0.00000000  0.00000000  1
  Cu  Cu5  1  0.50000000  0.50000000  0.50000000  1
  C  C6  1  0.95472000  0.25000000  0.54528000  1
  C  C7  1  0.54528000  0.95472000  0.25000000  1
  C  C8  1  0.25000000  0.54528000  0.95472000  1
  C  C9  1  0.75000000  0.45472000  0.04528000  1
  C  C10  1  0.45472000  0.04528000  0.75000000  1
  C  C11  1  0.04528000  0.75000000  0.45472000  1
  C  C12  1  0.88568300  0.68151800  0.49980500  1
  C  C13  1  0.68151800  0.49980500  0.88568300  1
  C  C14  1  0.94262700  0.08876700  0.74286900  1
  C  C15  1  0.49980500  0.88568300  0.68151800  1
  C  C16  1  0.99980500  0.18151800  0.38568300  1
  C  C17  1  0.75713100  0.41123300  0.55737300  1
  C  C18  1  0.74286900  0.94262700  0.08876700  1
  C  C19  1  0.55737300  0.75713100  0.41123300  1
  C  C20  1  0.81848200  0.61431700  0.00019500  1
  C  C21  1  0.41123300  0.55737300  0.75713100  1
  C  C22  1  0.91123300  0.25713100  0.05737300  1
  C  C23  1  0.61431700  0.00019500  0.81848200  1
  C  C24  1  0.38568300  0.99980500  0.18151800  1
  C  C25  1  0.08876700  0.74286900  0.94262700  1
  C  C26  1  0.58876700  0.44262700  0.24286900  1
  C  C27  1  0.18151800  0.38568300  0.99980500  1
  C  C28  1  0.44262700  0.24286900  0.58876700  1
  C  C29  1  0.25713100  0.05737300  0.91123300  1
  C  C30  1  0.24286900  0.58876700  0.44262700  1
  C  C31  1  0.00019500  0.81848200  0.61431700  1
  C  C32  1  0.50019500  0.11431700  0.31848200  1
  C  C33  1  0.05737300  0.91123300  0.25713100  1
  C  C34  1  0.31848200  0.50019500  0.11431700  1
  C  C35  1  0.11431700  0.31848200  0.50019500  1
