# generated using pymatgen
data_Cu2Ni3C23
_symmetry_space_group_name_H-M   'P 1'
_cell_length_a   5.88316019
_cell_length_b   5.88316019
_cell_length_c   9.59533722
_cell_angle_alpha   88.96520674
_cell_angle_beta   88.96520674
_cell_angle_gamma   60.03139795
_symmetry_Int_Tables_number   1
_chemical_formula_structural   Cu2Ni3C23
_chemical_formula_sum   'Cu2 Ni3 C23'
_cell_volume   287.64382803
_cell_formula_units_Z   1
loop_
 _symmetry_equiv_pos_site_id
 _symmetry_equiv_pos_as_xyz
  1  'x, y, z'
loop_
 _atom_site_type_symbol
 _atom_site_label
 _atom_site_symmetry_multiplicity
 _atom_site_fract_x
 _atom_site_fract_y
 _atom_site_fract_z
 _atom_site_occupancy
  C  C0  1  0.66150100  0.66150100  0.09476900  1
  C  C1  1  0.00572000  0.00572000  0.00766300  1
  C  C2  1  0.00753100  0.00753100  0.50964400  1
  C  C3  1  0.32897500  0.32897500  0.60122500  1
  C  C4  1  0.83099100  0.83099100  0.78586500  1
  C  C5  1  0.17049800  0.66141500  0.28576800  1
  C  C6  1  0.66141500  0.17049800  0.28576800  1
  Ni  Ni7  1  0.34213800  0.82998400  0.78589100  1
  Ni  Ni8  1  0.82998400  0.34213800  0.78589100  1
  Ni  Ni9  1  0.17343700  0.17343700  0.28505400  1
  Cu  Cu10  1  0.66547600  0.66547600  0.51488700  1
  Cu  Cu11  1  0.33227600  0.33227600  0.00848400  1
  C  C12  1  0.33277400  0.83776100  0.40251300  1
  C  C13  1  0.51690600  0.51690600  0.66790900  1
  C  C14  1  0.66136500  0.66136500  0.88853600  1
  C  C15  1  0.00634900  0.00634900  0.69636200  1
  C  C16  1  0.00822300  0.00822300  0.19553800  1
  C  C17  1  0.83776100  0.33277400  0.40251300  1
  C  C18  1  0.50740900  0.96301700  0.65807900  1
  C  C19  1  0.96301700  0.50740900  0.65807900  1
  C  C20  1  0.16430700  0.16430700  0.89725700  1
  C  C21  1  0.83609100  0.83609100  0.40945600  1
  C  C22  1  0.03273000  0.47297200  0.15673500  1
  C  C23  1  0.47297200  0.03273000  0.15673500  1
  C  C24  1  0.33050100  0.33050100  0.39374100  1
  C  C25  1  0.16529600  0.67422300  0.90392600  1
  C  C26  1  0.47996700  0.47996700  0.14999000  1
  C  C27  1  0.67422300  0.16529600  0.90392600  1
