# generated using pymatgen
data_Cu2Ni3C17
_symmetry_space_group_name_H-M   'P 1'
_cell_length_a   10.25542500
_cell_length_b   7.17158300
_cell_length_c   12.57173920
_cell_angle_alpha   63.53334399
_cell_angle_beta   90.00000000
_cell_angle_gamma   90.00000000
_symmetry_Int_Tables_number   1
_chemical_formula_structural   Cu2Ni3C17
_chemical_formula_sum   'Cu8 Ni12 C68'
_cell_volume   827.71563675
_cell_formula_units_Z   4
loop_
 _symmetry_equiv_pos_site_id
 _symmetry_equiv_pos_as_xyz
  1  'x, y, z'
loop_
 _atom_site_type_symbol
 _atom_site_label
 _atom_site_symmetry_multiplicity
 _atom_site_fract_x
 _atom_site_fract_y
 _atom_site_fract_z
 _atom_site_occupancy
  C  C0  1  0.42424700  0.26573400  0.19596900  1
  C  C1  1  0.07575300  0.26573400  0.69596900  1
  C  C2  1  0.57575300  0.73426600  0.80403100  1
  C  C3  1  0.92424700  0.73426600  0.30403100  1
  Ni  Ni4  1  0.28027200  0.48306900  0.45600500  1
  Ni  Ni5  1  0.21972800  0.48306900  0.95600500  1
  Ni  Ni6  1  0.71972800  0.51693100  0.54399500  1
  Ni  Ni7  1  0.78027200  0.51693100  0.04399500  1
  Ni  Ni8  1  0.43386500  0.75319200  0.23702200  1
  Ni  Ni9  1  0.06613500  0.75319200  0.73702200  1
  Ni  Ni10  1  0.56613500  0.24680800  0.76297800  1
  Ni  Ni11  1  0.93386500  0.24680800  0.26297800  1
  Ni  Ni12  1  0.24696500  0.02807900  0.04137900  1
  Ni  Ni13  1  0.25303500  0.02807900  0.54137900  1
  Ni  Ni14  1  0.75303500  0.97192100  0.95862100  1
  Ni  Ni15  1  0.74696500  0.97192100  0.45862100  1
  Cu  Cu16  1  0.18849000  0.94589400  0.31933500  1
  Cu  Cu17  1  0.31151000  0.94589400  0.81933500  1
  Cu  Cu18  1  0.81151000  0.05410600  0.68066500  1
  Cu  Cu19  1  0.68849000  0.05410600  0.18066500  1
  Cu  Cu20  1  0.17133700  0.56068000  0.18829400  1
  Cu  Cu21  1  0.32866300  0.56068000  0.68829400  1
  Cu  Cu22  1  0.82866300  0.43932000  0.81170600  1
  Cu  Cu23  1  0.67133700  0.43932000  0.31170600  1
  C  C24  1  0.49036100  0.69971000  0.43465700  1
  C  C25  1  0.00963900  0.69971000  0.93465700  1
  C  C26  1  0.50963900  0.30029000  0.56534300  1
  C  C27  1  0.99036100  0.30029000  0.06534300  1
  C  C28  1  0.40335700  0.77915200  0.03203500  1
  C  C29  1  0.09664300  0.77915200  0.53203500  1
  C  C30  1  0.59664300  0.22084800  0.96796500  1
  C  C31  1  0.90335700  0.22084800  0.46796500  1
  C  C32  1  0.09567500  0.31473900  0.42684100  1
  C  C33  1  0.40432500  0.31473900  0.92684100  1
  C  C34  1  0.90432500  0.68526100  0.57315900  1
  C  C35  1  0.59567500  0.68526100  0.07315900  1
  C  C36  1  0.45338700  0.21618800  0.45108100  1
  C  C37  1  0.04661300  0.21618800  0.95108100  1
  C  C38  1  0.54661300  0.78381200  0.54891900  1
  C  C39  1  0.95338700  0.78381200  0.04891900  1
  C  C40  1  0.42167700  0.65235100  0.39668600  1
  C  C41  1  0.07832300  0.65235100  0.89668600  1
  C  C42  1  0.57832300  0.34764900  0.60331400  1
  C  C43  1  0.92167700  0.34764900  0.10331400  1
  C  C44  1  0.39423300  0.85610600  0.07915200  1
  C  C45  1  0.10576700  0.85610600  0.57915200  1
  C  C46  1  0.60576700  0.14389400  0.92084800  1
  C  C47  1  0.89423300  0.14389400  0.42084800  1
  C  C48  1  0.14973900  0.28168100  0.49748300  1
  C  C49  1  0.35026100  0.28168100  0.99748300  1
  C  C50  1  0.85026100  0.71831900  0.50251700  1
  C  C51  1  0.64973900  0.71831900  0.00251700  1
  C  C52  1  0.11398600  0.22778100  0.00321000  1
  C  C53  1  0.38601400  0.22778100  0.50321000  1
  C  C54  1  0.88601400  0.77221900  0.99679000  1
  C  C55  1  0.61398600  0.77221900  0.49679000  1
  C  C56  1  0.26129800  0.04924900  0.38616800  1
  C  C57  1  0.23870200  0.04924900  0.88616800  1
  C  C58  1  0.73870200  0.95075100  0.61383200  1
  C  C59  1  0.76129800  0.95075100  0.11383200  1
  C  C60  1  0.27953500  0.97028900  0.21279600  1
  C  C61  1  0.22046500  0.97028900  0.71279600  1
  C  C62  1  0.72046500  0.02971100  0.78720400  1
  C  C63  1  0.77953500  0.02971100  0.28720400  1
  C  C64  1  0.28443700  0.54403700  0.27680400  1
  C  C65  1  0.21556300  0.54403700  0.77680400  1
  C  C66  1  0.71556300  0.45596300  0.72319600  1
  C  C67  1  0.78443700  0.45596300  0.22319600  1
  C  C68  1  0.21906400  0.45552900  0.11229500  1
  C  C69  1  0.28093600  0.45552900  0.61229500  1
  C  C70  1  0.78093600  0.54447100  0.88770500  1
  C  C71  1  0.71906400  0.54447100  0.38770500  1
  C  C72  1  0.16020700  0.71120100  0.40244300  1
  C  C73  1  0.33979300  0.71120100  0.90244300  1
  C  C74  1  0.83979300  0.28879900  0.59755700  1
  C  C75  1  0.66020700  0.28879900  0.09755700  1
  C  C76  1  0.13061400  0.78991300  0.10999900  1
  C  C77  1  0.36938600  0.78991300  0.60999900  1
  C  C78  1  0.86938600  0.21008700  0.89000100  1
  C  C79  1  0.63061400  0.21008700  0.39000100  1
  C  C80  1  0.05410300  0.04428500  0.27308700  1
  C  C81  1  0.44589700  0.04428500  0.77308700  1
  C  C82  1  0.94589700  0.95571500  0.72691300  1
  C  C83  1  0.55410300  0.95571500  0.22691300  1
  C  C84  1  0.05155700  0.44536100  0.26627200  1
  C  C85  1  0.44844300  0.44536100  0.76627200  1
  C  C86  1  0.94844300  0.55463900  0.73372800  1
  C  C87  1  0.55155700  0.55463900  0.23372800  1
