# generated using pymatgen
data_CuNiC
_symmetry_space_group_name_H-M   'P 1'
_cell_length_a   9.46097354
_cell_length_b   14.24752991
_cell_length_c   3.08523300
_cell_angle_alpha   90.00000000
_cell_angle_beta   90.00000000
_cell_angle_gamma   90.29495693
_symmetry_Int_Tables_number   1
_chemical_formula_structural   CuNiC
_chemical_formula_sum   'Cu12 Ni12 C12'
_cell_volume   415.87002464
_cell_formula_units_Z   12
loop_
 _symmetry_equiv_pos_site_id
 _symmetry_equiv_pos_as_xyz
  1  'x, y, z'
loop_
 _atom_site_type_symbol
 _atom_site_label
 _atom_site_symmetry_multiplicity
 _atom_site_fract_x
 _atom_site_fract_y
 _atom_site_fract_z
 _atom_site_occupancy
  C  C0  1  0.00041700  0.00076100  0.00000000  1
  C  C1  1  0.01939100  0.33172400  0.00000000  1
  C  C2  1  0.00317700  0.66701200  0.00000000  1
  C  C3  1  0.25659100  0.18226200  0.50000000  1
  C  C4  1  0.25175500  0.48348000  0.50000000  1
  C  C5  1  0.22175000  0.83302300  0.50000000  1
  C  C6  1  0.48836900  0.33721600  0.00000000  1
  C  C7  1  0.51534500  0.00125500  0.00000000  1
  C  C8  1  0.51446000  0.66180300  0.00000000  1
  C  C9  1  0.75266000  0.15185000  0.50000000  1
  C  C10  1  0.75799900  0.51567800  0.50000000  1
  C  C11  1  0.71941000  0.83212400  0.50000000  1
  Ni  Ni12  1  0.09596700  0.26710700  0.50000000  1
  Ni  Ni13  1  0.09490500  0.93594500  0.50000000  1
  Ni  Ni14  1  0.14643900  0.76216800  0.00000000  1
  Ni  Ni15  1  0.15170100  0.43500100  0.00000000  1
  Ni  Ni16  1  0.35644600  0.23217600  0.00000000  1
  Ni  Ni17  1  0.40944500  0.40308400  0.50000000  1
  Ni  Ni18  1  0.59176100  0.93651200  0.50000000  1
  Ni  Ni19  1  0.59232600  0.59606600  0.50000000  1
  Ni  Ni20  1  0.64553000  0.10669400  0.00000000  1
  Ni  Ni21  1  0.64874900  0.76527800  0.00000000  1
  Ni  Ni22  1  0.85736400  0.56964000  0.00000000  1
  Ni  Ni23  1  0.90554100  0.06454700  0.50000000  1
  Cu  Cu24  1  0.10313800  0.59993100  0.50000000  1
  Cu  Cu25  1  0.16173200  0.10367100  0.00000000  1
  Cu  Cu26  1  0.34287300  0.56760700  0.00000000  1
  Cu  Cu27  1  0.34458900  0.89487500  0.00000000  1
  Cu  Cu28  1  0.39330400  0.06187700  0.50000000  1
  Cu  Cu29  1  0.39751500  0.72828600  0.50000000  1
  Cu  Cu30  1  0.60470100  0.27681200  0.50000000  1
  Cu  Cu31  1  0.66394000  0.43518000  0.00000000  1
  Cu  Cu32  1  0.84462300  0.23598700  0.00000000  1
  Cu  Cu33  1  0.84241800  0.89199800  0.00000000  1
  Cu  Cu34  1  0.90086700  0.39949800  0.50000000  1
  Cu  Cu35  1  0.90280200  0.73187000  0.50000000  1
