# generated using pymatgen
data_Cu(NiC2)3
_symmetry_space_group_name_H-M   'P 1'
_cell_length_a   6.82312088
_cell_length_b   6.82312088
_cell_length_c   6.82312093
_cell_angle_alpha   91.70978567
_cell_angle_beta   91.70978567
_cell_angle_gamma   91.70978965
_symmetry_Int_Tables_number   1
_chemical_formula_structural   Cu(NiC2)3
_chemical_formula_sum   'Cu2 Ni6 C12'
_cell_volume   317.21733607
_cell_formula_units_Z   2
loop_
 _symmetry_equiv_pos_site_id
 _symmetry_equiv_pos_as_xyz
  1  'x, y, z'
loop_
 _atom_site_type_symbol
 _atom_site_label
 _atom_site_symmetry_multiplicity
 _atom_site_fract_x
 _atom_site_fract_y
 _atom_site_fract_z
 _atom_site_occupancy
  Ni  Ni0  1  0.74814400  0.93717500  0.44349900  1
  Ni  Ni1  1  0.44349900  0.74814400  0.93717500  1
  Ni  Ni2  1  0.06282500  0.55650100  0.25185600  1
  Ni  Ni3  1  0.93717500  0.44349900  0.74814400  1
  Ni  Ni4  1  0.55650100  0.25185600  0.06282500  1
  Ni  Ni5  1  0.25185600  0.06282500  0.55650100  1
  Cu  Cu6  1  0.00000000  0.00000000  0.00000000  1
  Cu  Cu7  1  0.50000000  0.50000000  0.50000000  1
  C  C8  1  0.06884300  0.90730500  0.31398600  1
  C  C9  1  0.68601400  0.93115700  0.09269500  1
  C  C10  1  0.46854400  0.81559800  0.60004600  1
  C  C11  1  0.09269500  0.68601400  0.93115700  1
  C  C12  1  0.81559800  0.60004600  0.46854400  1
  C  C13  1  0.39995400  0.53145600  0.18440200  1
  C  C14  1  0.60004600  0.46854400  0.81559800  1
  C  C15  1  0.18440200  0.39995400  0.53145600  1
  C  C16  1  0.90730500  0.31398600  0.06884300  1
  C  C17  1  0.53145600  0.18440200  0.39995400  1
  C  C18  1  0.31398600  0.06884300  0.90730500  1
  C  C19  1  0.93115700  0.09269500  0.68601400  1
