# generated using pymatgen
data_Cu4NiC11
_symmetry_space_group_name_H-M   'P 1'
_cell_length_a   5.83323565
_cell_length_b   5.83323565
_cell_length_c   5.80980798
_cell_angle_alpha   60.14741784
_cell_angle_beta   60.14741784
_cell_angle_gamma   59.14464762
_symmetry_Int_Tables_number   1
_chemical_formula_structural   Cu4NiC11
_chemical_formula_sum   'Cu4 Ni1 C11'
_cell_volume   139.16545334
_cell_formula_units_Z   1
loop_
 _symmetry_equiv_pos_site_id
 _symmetry_equiv_pos_as_xyz
  1  'x, y, z'
loop_
 _atom_site_type_symbol
 _atom_site_label
 _atom_site_symmetry_multiplicity
 _atom_site_fract_x
 _atom_site_fract_y
 _atom_site_fract_z
 _atom_site_occupancy
  C  C0  1  0.00000000  0.50000000  0.50000000  1
  C  C1  1  0.00000000  0.00000000  0.50000000  1
  C  C2  1  0.50000000  0.00000000  0.50000000  1
  Ni  Ni3  1  0.50000000  0.50000000  0.00000000  1
  Cu  Cu4  1  0.50000000  0.00000000  0.00000000  1
  Cu  Cu5  1  0.00000000  0.00000000  0.00000000  1
  Cu  Cu6  1  0.50000000  0.50000000  0.50000000  1
  Cu  Cu7  1  0.00000000  0.50000000  0.00000000  1
  C  C8  1  0.26354200  0.73743600  0.76228100  1
  C  C9  1  0.73645800  0.26256400  0.23771900  1
  C  C10  1  0.26988200  0.26988200  0.21181000  1
  C  C11  1  0.73011800  0.73011800  0.78819000  1
  C  C12  1  0.24964500  0.24964500  0.77872700  1
  C  C13  1  0.75035500  0.75035500  0.22127300  1
  C  C14  1  0.73743600  0.26354200  0.76228100  1
  C  C15  1  0.26256400  0.73645800  0.23771900  1
