# generated using pymatgen
data_Cu5Ni3C19
_symmetry_space_group_name_H-M   'P 1'
_cell_length_a   10.78119005
_cell_length_b   10.78119005
_cell_length_c   15.01068903
_cell_angle_alpha   76.08862203
_cell_angle_beta   76.08862203
_cell_angle_gamma   32.22573297
_symmetry_Int_Tables_number   1
_chemical_formula_structural   Cu5Ni3C19
_chemical_formula_sum   'Cu10 Ni6 C38'
_cell_volume   900.79610431
_cell_formula_units_Z   2
loop_
 _symmetry_equiv_pos_site_id
 _symmetry_equiv_pos_as_xyz
  1  'x, y, z'
loop_
 _atom_site_type_symbol
 _atom_site_label
 _atom_site_symmetry_multiplicity
 _atom_site_fract_x
 _atom_site_fract_y
 _atom_site_fract_z
 _atom_site_occupancy
  C  C0  1  0.50000000  0.50000000  0.50000000  1
  C  C1  1  0.50000000  0.50000000  0.00000000  1
  C  C2  1  0.72221100  0.72221100  0.88596100  1
  C  C3  1  0.27778900  0.27778900  0.11403900  1
  C  C4  1  0.92393900  0.92393900  0.69748500  1
  C  C5  1  0.07606100  0.07606100  0.30251500  1
  C  C6  1  0.08480500  0.08480500  0.78447900  1
  C  C7  1  0.91519500  0.91519500  0.21552100  1
  C  C8  1  0.29294200  0.29294200  0.62884000  1
  C  C9  1  0.70705800  0.70705800  0.37116000  1
  Ni  Ni10  1  0.61378400  0.61378400  0.64324000  1
  Ni  Ni11  1  0.38621600  0.38621600  0.35676000  1
  Ni  Ni12  1  0.09421400  0.09421400  0.07414500  1
  Ni  Ni13  1  0.90578600  0.90578600  0.92585500  1
  Ni  Ni14  1  0.16852200  0.16852200  0.53453600  1
  Ni  Ni15  1  0.83147800  0.83147800  0.46546400  1
  Cu  Cu16  1  0.34080100  0.34080100  0.84310200  1
  Cu  Cu17  1  0.65919900  0.65919900  0.15689800  1
  Cu  Cu18  1  0.45474100  0.45474100  0.78801400  1
  Cu  Cu19  1  0.54525900  0.54525900  0.21198600  1
  Cu  Cu20  1  0.67826300  0.67826300  0.65125900  1
  Cu  Cu21  1  0.32173700  0.32173700  0.34874100  1
  Cu  Cu22  1  0.12977100  0.12977100  0.98466900  1
  Cu  Cu23  1  0.87022900  0.87022900  0.01533100  1
  Cu  Cu24  1  0.10708300  0.10708300  0.51742600  1
  Cu  Cu25  1  0.89291700  0.89291700  0.48257400  1
  C  C26  1  0.11795000  0.53299400  0.79527700  1
  C  C27  1  0.53299400  0.11795000  0.79527700  1
  C  C28  1  0.88205000  0.46700600  0.20472300  1
  C  C29  1  0.46700600  0.88205000  0.20472300  1
  C  C30  1  0.27318900  0.68647800  0.82344300  1
  C  C31  1  0.68647800  0.27318900  0.82344300  1
  C  C32  1  0.72681100  0.31352200  0.17655700  1
  C  C33  1  0.31352200  0.72681100  0.17655700  1
  C  C34  1  0.46640800  0.46640800  0.68635300  1
  C  C35  1  0.53359200  0.53359200  0.31364700  1
  C  C36  1  0.88911600  0.47838100  0.70317800  1
  C  C37  1  0.47838100  0.88911600  0.70317800  1
  C  C38  1  0.11088400  0.52161900  0.29682200  1
  C  C39  1  0.52161900  0.11088400  0.29682200  1
  C  C40  1  0.72111100  0.72111100  0.55778000  1
  C  C41  1  0.27888900  0.27888900  0.44222000  1
  C  C42  1  0.90384400  0.31393300  0.94474800  1
  C  C43  1  0.31393300  0.90384400  0.94474800  1
  C  C44  1  0.09615600  0.68606700  0.05525200  1
  C  C45  1  0.68606700  0.09615600  0.05525200  1
  C  C46  1  0.20064600  0.20064600  0.98402100  1
  C  C47  1  0.79935400  0.79935400  0.01597900  1
  C  C48  1  0.90084900  0.30866800  0.46315900  1
  C  C49  1  0.30866800  0.90084900  0.46315900  1
  C  C50  1  0.09915100  0.69133200  0.53684100  1
  C  C51  1  0.69133200  0.09915100  0.53684100  1
  C  C52  1  0.05869500  0.05869500  0.60733400  1
  C  C53  1  0.94130500  0.94130500  0.39266600  1
