# generated using pymatgen
data_Cu(NiC6)5
_symmetry_space_group_name_H-M   'P 1'
_cell_length_a   8.54737177
_cell_length_b   8.54737177
_cell_length_c   8.54737202
_cell_angle_alpha   61.08858296
_cell_angle_beta   61.08858296
_cell_angle_gamma   61.08858448
_symmetry_Int_Tables_number   1
_chemical_formula_structural   Cu(NiC6)5
_chemical_formula_sum   'Cu1 Ni5 C30'
_cell_volume   452.37341672
_cell_formula_units_Z   1
loop_
 _symmetry_equiv_pos_site_id
 _symmetry_equiv_pos_as_xyz
  1  'x, y, z'
loop_
 _atom_site_type_symbol
 _atom_site_label
 _atom_site_symmetry_multiplicity
 _atom_site_fract_x
 _atom_site_fract_y
 _atom_site_fract_z
 _atom_site_occupancy
  Ni  Ni0  1  0.00421900  0.00421900  0.00421900  1
  Ni  Ni1  1  0.35285400  0.35285400  0.35285400  1
  Ni  Ni2  1  0.49912400  0.49912400  0.49912400  1
  Ni  Ni3  1  0.14457500  0.14457500  0.14457500  1
  Ni  Ni4  1  0.64581700  0.64581700  0.64581700  1
  Cu  Cu5  1  0.85682800  0.85682800  0.85682800  1
  C  C6  1  0.74722200  0.04996900  0.45229500  1
  C  C7  1  0.04996900  0.45229500  0.74722200  1
  C  C8  1  0.45229500  0.74722200  0.04996900  1
  C  C9  1  0.54060500  0.25314600  0.95222200  1
  C  C10  1  0.95222200  0.54060500  0.25314600  1
  C  C11  1  0.25314600  0.95222200  0.54060500  1
  C  C12  1  0.89219800  0.50176900  0.67859800  1
  C  C13  1  0.50176900  0.67859800  0.89219800  1
  C  C14  1  0.67859800  0.89219800  0.50176900  1
  C  C15  1  0.90466900  0.06468300  0.25691500  1
  C  C16  1  0.81574200  0.01622700  0.60592400  1
  C  C17  1  0.58924400  0.24964300  0.43924400  1
  C  C18  1  0.06468300  0.25691500  0.90466900  1
  C  C19  1  0.24964300  0.43924400  0.58924400  1
  C  C20  1  0.38940800  0.18003200  0.99438600  1
  C  C21  1  0.43924400  0.58924400  0.24964300  1
  C  C22  1  0.74221200  0.09666100  0.93768500  1
  C  C23  1  0.99438600  0.38940800  0.18003200  1
  C  C24  1  0.01622700  0.60592400  0.81574200  1
  C  C25  1  0.25691500  0.90466900  0.06468300  1
  C  C26  1  0.55682400  0.40925500  0.75092400  1
  C  C27  1  0.60592400  0.81574200  0.01622700  1
  C  C28  1  0.75092400  0.55682400  0.40925500  1
  C  C29  1  0.93768500  0.74221200  0.09666100  1
  C  C30  1  0.40925500  0.75092400  0.55682400  1
  C  C31  1  0.18003200  0.99438600  0.38940800  1
  C  C32  1  0.09666100  0.93768500  0.74221200  1
  C  C33  1  0.32327400  0.10558400  0.50001200  1
  C  C34  1  0.50001200  0.32327400  0.10558400  1
  C  C35  1  0.10558400  0.50001200  0.32327400  1
