# generated using pymatgen
data_Cu2(NiC2)3
_symmetry_space_group_name_H-M   'P 1'
_cell_length_a   7.60824846
_cell_length_b   11.28367160
_cell_length_c   9.40266592
_cell_angle_alpha   75.96529501
_cell_angle_beta   70.50925179
_cell_angle_gamma   83.95727329
_symmetry_Int_Tables_number   1
_chemical_formula_structural   Cu2(NiC2)3
_chemical_formula_sum   'Cu8 Ni12 C24'
_cell_volume   737.97541853
_cell_formula_units_Z   4
loop_
 _symmetry_equiv_pos_site_id
 _symmetry_equiv_pos_as_xyz
  1  'x, y, z'
loop_
 _atom_site_type_symbol
 _atom_site_label
 _atom_site_symmetry_multiplicity
 _atom_site_fract_x
 _atom_site_fract_y
 _atom_site_fract_z
 _atom_site_occupancy
  C  C0  1  0.71656700  0.63734600  0.80427900  1
  C  C1  1  0.21715000  0.13756300  0.80418800  1
  C  C2  1  0.28320800  0.36252000  0.19563100  1
  C  C3  1  0.78314600  0.86262200  0.19582700  1
  C  C4  1  0.20573000  0.82799200  0.67399400  1
  C  C5  1  0.29418700  0.67181100  0.32609400  1
  C  C6  1  0.70608400  0.32805400  0.67376400  1
  C  C7  1  0.79439300  0.17206800  0.32584000  1
  C  C8  1  0.83538700  0.93374900  0.49501100  1
  C  C9  1  0.33530100  0.43365200  0.49503200  1
  C  C10  1  0.16460000  0.06629300  0.50511400  1
  C  C11  1  0.66459400  0.56627300  0.50506400  1
  C  C12  1  0.62901100  0.96818700  0.58367300  1
  C  C13  1  0.12896100  0.46806900  0.58386800  1
  C  C14  1  0.37093400  0.03187300  0.41633200  1
  C  C15  1  0.87099500  0.53198100  0.41619800  1
  C  C16  1  0.60522300  0.14857500  0.94689000  1
  C  C17  1  0.10520000  0.64852100  0.94694900  1
  C  C18  1  0.39470100  0.85146500  0.05312700  1
  C  C19  1  0.89476200  0.35154700  0.05303500  1
  C  C20  1  0.71083600  0.07876300  0.81673300  1
  C  C21  1  0.21089900  0.57873800  0.81674100  1
  C  C22  1  0.28907500  0.92117000  0.18340200  1
  C  C23  1  0.78910200  0.42126100  0.18331100  1
  Ni  Ni24  1  0.02119500  0.77497600  0.50833900  1
  Ni  Ni25  1  0.52137800  0.27508900  0.50818200  1
  Ni  Ni26  1  0.97885000  0.22501900  0.49158100  1
  Ni  Ni27  1  0.47866600  0.72491700  0.49171300  1
  Ni  Ni28  1  0.42791200  0.87167300  0.80630900  1
  Ni  Ni29  1  0.92797300  0.37170200  0.80630500  1
  Ni  Ni30  1  0.57203200  0.12832000  0.19370600  1
  Ni  Ni31  1  0.07198300  0.62826400  0.19371900  1
  Ni  Ni32  1  0.92232100  0.92583300  0.83533500  1
  Ni  Ni33  1  0.42229400  0.42571400  0.83517700  1
  Ni  Ni34  1  0.07775100  0.07427900  0.16468300  1
  Ni  Ni35  1  0.57767700  0.57413100  0.16472300  1
  Cu  Cu36  1  0.72995000  0.99022600  0.48401600  1
  Cu  Cu37  1  0.22985000  0.49013600  0.48416400  1
  Cu  Cu38  1  0.27003000  0.00978800  0.51600400  1
  Cu  Cu39  1  0.77011600  0.50984600  0.51592700  1
  Cu  Cu40  1  0.62274400  0.14825700  0.83770000  1
  Cu  Cu41  1  0.12274600  0.64820200  0.83775500  1
  Cu  Cu42  1  0.37723400  0.85173200  0.16232000  1
  Cu  Cu43  1  0.87725000  0.35180200  0.16224400  1
