# generated using pymatgen
data_Cu9Ni3C4
_symmetry_space_group_name_H-M   'P 1'
_cell_length_a   6.11262309
_cell_length_b   6.11250745
_cell_length_c   9.82088303
_cell_angle_alpha   90.00572180
_cell_angle_beta   90.00541031
_cell_angle_gamma   109.00244566
_symmetry_Int_Tables_number   1
_chemical_formula_structural   Cu9Ni3C4
_chemical_formula_sum   'Cu18 Ni6 C8'
_cell_volume   346.94547990
_cell_formula_units_Z   2
loop_
 _symmetry_equiv_pos_site_id
 _symmetry_equiv_pos_as_xyz
  1  'x, y, z'
loop_
 _atom_site_type_symbol
 _atom_site_label
 _atom_site_symmetry_multiplicity
 _atom_site_fract_x
 _atom_site_fract_y
 _atom_site_fract_z
 _atom_site_occupancy
  C  C0  1  0.89467300  0.89468100  0.99995200  1
  C  C1  1  0.89469200  0.89465400  0.49996200  1
  C  C2  1  0.61963200  0.61959800  0.24999000  1
  C  C3  1  0.61960700  0.61962500  0.74998500  1
  C  C4  1  0.26451000  0.82739400  0.75004500  1
  C  C5  1  0.82734800  0.26448300  0.25008300  1
  C  C6  1  0.26459400  0.82738700  0.25001400  1
  C  C7  1  0.82744900  0.26460100  0.75007600  1
  Ni  Ni8  1  0.24773800  0.24774000  0.24997800  1
  Ni  Ni9  1  0.24775300  0.24776400  0.74999400  1
  Ni  Ni10  1  0.44764000  0.85187600  0.99998600  1
  Ni  Ni11  1  0.44757200  0.85189000  0.50000400  1
  Ni  Ni12  1  0.85186800  0.44759900  0.00000100  1
  Ni  Ni13  1  0.85185700  0.44765000  0.49999900  1
  Cu  Cu14  1  0.05999800  0.05997400  0.24999100  1
  Cu  Cu15  1  0.05999400  0.05999900  0.74999300  1
  Cu  Cu16  1  0.24567600  0.87420700  0.99996400  1
  Cu  Cu17  1  0.24566700  0.87426200  0.49997700  1
  Cu  Cu18  1  0.87426300  0.24564500  0.99994700  1
  Cu  Cu19  1  0.87419600  0.24566400  0.49995200  1
  Cu  Cu20  1  0.21809300  0.44585100  0.25000900  1
  Cu  Cu21  1  0.21810000  0.44583500  0.74999600  1
  Cu  Cu22  1  0.44584500  0.21819600  0.24994000  1
  Cu  Cu23  1  0.44585500  0.21813300  0.75004300  1
  Cu  Cu24  1  0.54950300  0.84003900  0.11464600  1
  Cu  Cu25  1  0.54952100  0.84003700  0.61465200  1
  Cu  Cu26  1  0.84009100  0.54947300  0.11469100  1
  Cu  Cu27  1  0.84006300  0.54950200  0.61467900  1
  Cu  Cu28  1  0.54955400  0.84004400  0.38536000  1
  Cu  Cu29  1  0.54955400  0.84003900  0.88535400  1
  Cu  Cu30  1  0.84002100  0.54957700  0.38535700  1
  Cu  Cu31  1  0.84005000  0.54956000  0.88538000  1
