# generated using pymatgen
data_Cu4NiC22
_symmetry_space_group_name_H-M   'P 1'
_cell_length_a   10.03061881
_cell_length_b   10.02676245
_cell_length_c   9.84052019
_cell_angle_alpha   60.63833225
_cell_angle_beta   60.59920162
_cell_angle_gamma   58.76246613
_symmetry_Int_Tables_number   1
_chemical_formula_structural   Cu4NiC22
_chemical_formula_sum   'Cu8 Ni2 C44'
_cell_volume   699.34441916
_cell_formula_units_Z   2
loop_
 _symmetry_equiv_pos_site_id
 _symmetry_equiv_pos_as_xyz
  1  'x, y, z'
loop_
 _atom_site_type_symbol
 _atom_site_label
 _atom_site_symmetry_multiplicity
 _atom_site_fract_x
 _atom_site_fract_y
 _atom_site_fract_z
 _atom_site_occupancy
  C  C0  1  0.79062400  0.20937600  0.20937600  1
  C  C1  1  0.20824300  0.79175700  0.20824300  1
  C  C2  1  0.45824300  0.04175700  0.45824300  1
  C  C3  1  0.04062400  0.45937600  0.45937600  1
  C  C4  1  0.20937600  0.79062400  0.79062400  1
  C  C5  1  0.79175700  0.20824300  0.79175700  1
  C  C6  1  0.04175700  0.45824300  0.04175700  1
  C  C7  1  0.45937600  0.04062400  0.04062400  1
  C  C8  1  0.62500000  0.62500000  0.12500000  1
  C  C9  1  0.62500000  0.62500000  0.62500000  1
  C  C10  1  0.62500000  0.12500000  0.62500000  1
  C  C11  1  0.12500000  0.62500000  0.62500000  1
  Ni  Ni12  1  0.25000000  0.25000000  0.25000000  1
  Ni  Ni13  1  0.00000000  0.00000000  0.00000000  1
  Cu  Cu14  1  0.83182800  0.83549900  0.48642800  1
  Cu  Cu15  1  0.41450100  0.41817200  0.40375500  1
  Cu  Cu16  1  0.84624500  0.48642800  0.83549900  1
  Cu  Cu17  1  0.48642800  0.84624500  0.83182800  1
  Cu  Cu18  1  0.76357200  0.40375500  0.41817200  1
  Cu  Cu19  1  0.40375500  0.76357200  0.41450100  1
  Cu  Cu20  1  0.83549900  0.83182800  0.84624500  1
  Cu  Cu21  1  0.41817200  0.41450100  0.76357200  1
  C  C22  1  0.79917000  0.98072900  0.48231800  1
  C  C23  1  0.44111200  0.18034900  0.18840500  1
  C  C24  1  0.71818200  0.80717300  0.48902100  1
  C  C25  1  0.44282700  0.53181800  0.26437600  1
  C  C26  1  0.98562400  0.48902100  0.80717300  1
  C  C27  1  0.52625100  0.27257900  0.43142800  1
  C  C28  1  0.19013400  0.18840500  0.18034900  1
  C  C29  1  0.18034900  0.44111200  0.19013400  1
  C  C30  1  0.43142800  0.76974200  0.52625100  1
  C  C31  1  0.48902100  0.98562400  0.71818200  1
  C  C32  1  0.26927100  0.45083000  0.51221700  1
  C  C33  1  0.18840500  0.19013400  0.44111200  1
  C  C34  1  0.73778300  0.48231800  0.98072900  1
  C  C35  1  0.48231800  0.73778300  0.79917000  1
  C  C36  1  0.97742100  0.72374900  0.48025800  1
  C  C37  1  0.76974200  0.43142800  0.27257900  1
  C  C38  1  0.48025800  0.81857200  0.97742100  1
  C  C39  1  0.27257900  0.52625100  0.76974200  1
  C  C40  1  0.76768200  0.51221700  0.45083000  1
  C  C41  1  0.51221700  0.76768200  0.26927100  1
  C  C42  1  0.06159500  0.05986600  0.80888800  1
  C  C43  1  0.98072900  0.79917000  0.73778300  1
  C  C44  1  0.76097900  0.26437600  0.53181800  1
  C  C45  1  0.81857200  0.48025800  0.72374900  1
  C  C46  1  0.06965100  0.80888800  0.05986600  1
  C  C47  1  0.05986600  0.06159500  0.06965100  1
  C  C48  1  0.72374900  0.97742100  0.81857200  1
  C  C49  1  0.26437600  0.76097900  0.44282700  1
  C  C50  1  0.80717300  0.71818200  0.98562400  1
  C  C51  1  0.53181800  0.44282700  0.76097900  1
  C  C52  1  0.80888800  0.06965100  0.06159500  1
  C  C53  1  0.45083000  0.26927100  0.76768200  1
