# generated using pymatgen
data_Cu5Ni4C9
_symmetry_space_group_name_H-M   'P 1'
_cell_length_a   24.37560500
_cell_length_b   6.84285000
_cell_length_c   9.35834066
_cell_angle_alpha   78.08535855
_cell_angle_beta   90.00000000
_cell_angle_gamma   90.00000000
_symmetry_Int_Tables_number   1
_chemical_formula_structural   Cu5Ni4C9
_chemical_formula_sum   'Cu20 Ni16 C36'
_cell_volume   1527.32932361
_cell_formula_units_Z   4
loop_
 _symmetry_equiv_pos_site_id
 _symmetry_equiv_pos_as_xyz
  1  'x, y, z'
loop_
 _atom_site_type_symbol
 _atom_site_label
 _atom_site_symmetry_multiplicity
 _atom_site_fract_x
 _atom_site_fract_y
 _atom_site_fract_z
 _atom_site_occupancy
  C  C0  1  0.36201700  0.52200400  0.75139500  1
  C  C1  1  0.86201700  0.97799600  0.24860500  1
  C  C2  1  0.63798300  0.47799600  0.24860500  1
  C  C3  1  0.13798300  0.02200400  0.75139500  1
  C  C4  1  0.39086700  0.93306300  0.49255000  1
  C  C5  1  0.89086700  0.56693700  0.50745000  1
  C  C6  1  0.60913300  0.06693700  0.50745000  1
  C  C7  1  0.10913300  0.43306300  0.49255000  1
  C  C8  1  0.28453900  0.21310500  0.74038300  1
  C  C9  1  0.78453900  0.28689500  0.25961700  1
  C  C10  1  0.71546100  0.78689500  0.25961700  1
  C  C11  1  0.21546100  0.71310500  0.74038300  1
  C  C12  1  0.34292700  0.11004200  0.73766400  1
  C  C13  1  0.84292700  0.38995800  0.26233600  1
  C  C14  1  0.65707300  0.88995800  0.26233600  1
  C  C15  1  0.15707300  0.61004200  0.73766400  1
  C  C16  1  0.34271700  0.17648900  0.32532200  1
  C  C17  1  0.84271700  0.32351100  0.67467800  1
  C  C18  1  0.65728300  0.82351100  0.67467800  1
  C  C19  1  0.15728300  0.67648900  0.32532200  1
  C  C20  1  0.32288800  0.85604600  0.15970700  1
  C  C21  1  0.82288800  0.64395400  0.84029300  1
  C  C22  1  0.67711200  0.14395400  0.84029300  1
  C  C23  1  0.17711200  0.35604600  0.15970700  1
  C  C24  1  0.44238000  0.75819500  0.17689900  1
  C  C25  1  0.94238000  0.74180500  0.82310100  1
  C  C26  1  0.55762000  0.24180500  0.82310100  1
  C  C27  1  0.05762000  0.25819500  0.17689900  1
  C  C28  1  0.45839100  0.09550300  0.32831600  1
  C  C29  1  0.95839100  0.40449700  0.67168400  1
  C  C30  1  0.54160900  0.90449700  0.67168400  1
  C  C31  1  0.04160900  0.59550300  0.32831600  1
  Ni  Ni32  1  0.39707000  0.05655000  0.41045000  1
  Ni  Ni33  1  0.89707000  0.44345000  0.58955000  1
  Ni  Ni34  1  0.60293000  0.94345000  0.58955000  1
  Ni  Ni35  1  0.10293000  0.55655000  0.41045000  1
  Ni  Ni36  1  0.31487400  0.05112600  0.21906000  1
  Ni  Ni37  1  0.81487400  0.44887400  0.78094000  1
  Ni  Ni38  1  0.68512600  0.94887400  0.78094000  1
  Ni  Ni39  1  0.18512600  0.55112600  0.21906000  1
  Ni  Ni40  1  0.37784600  0.72950500  0.19470700  1
  Ni  Ni41  1  0.87784600  0.77049500  0.80529300  1
  Ni  Ni42  1  0.62215400  0.27049500  0.80529300  1
  Ni  Ni43  1  0.12215400  0.22950500  0.19470700  1
  Ni  Ni44  1  0.47052000  0.93297200  0.23213200  1
  Ni  Ni45  1  0.97052000  0.56702800  0.76786800  1
  Ni  Ni46  1  0.52948000  0.06702800  0.76786800  1
  Ni  Ni47  1  0.02948000  0.43297200  0.23213200  1
  Cu  Cu48  1  0.41621400  0.31618000  0.94183200  1
  Cu  Cu49  1  0.91621400  0.18382000  0.05816800  1
  Cu  Cu50  1  0.58378600  0.68382000  0.05816800  1
  Cu  Cu51  1  0.08378600  0.81618000  0.94183200  1
  Cu  Cu52  1  0.28586500  0.52346700  0.92092500  1
  Cu  Cu53  1  0.78586500  0.97653300  0.07907500  1
  Cu  Cu54  1  0.71413500  0.47653300  0.07907500  1
  Cu  Cu55  1  0.21413500  0.02346700  0.92092500  1
  Cu  Cu56  1  0.30252100  0.69877300  0.55608700  1
  Cu  Cu57  1  0.80252100  0.80122700  0.44391300  1
  Cu  Cu58  1  0.69747900  0.30122700  0.44391300  1
  Cu  Cu59  1  0.19747900  0.19877300  0.55608700  1
  Cu  Cu60  1  0.43142600  0.49500700  0.56996400  1
  Cu  Cu61  1  0.93142600  0.00499300  0.43003600  1
  Cu  Cu62  1  0.56857400  0.50499300  0.43003600  1
  Cu  Cu63  1  0.06857400  0.99500700  0.56996400  1
  Cu  Cu64  1  0.39923400  0.84440600  0.79052800  1
  Cu  Cu65  1  0.89923400  0.65559400  0.20947200  1
  Cu  Cu66  1  0.60076600  0.15559400  0.20947200  1
  Cu  Cu67  1  0.10076600  0.34440600  0.79052800  1
  C  C68  1  0.32228200  0.23622900  0.70346200  1
  C  C69  1  0.82228200  0.26377100  0.29653800  1
  C  C70  1  0.67771800  0.76377100  0.29653800  1
  C  C71  1  0.17771800  0.73622900  0.70346200  1
