# generated using pymatgen
data_Cu4(NiC7)3
_symmetry_space_group_name_H-M   'P 1'
_cell_length_a   4.88103872
_cell_length_b   11.00126268
_cell_length_c   13.59203324
_cell_angle_alpha   90.02048278
_cell_angle_beta   89.99209968
_cell_angle_gamma   91.47691449
_symmetry_Int_Tables_number   1
_chemical_formula_structural   Cu4(NiC7)3
_chemical_formula_sum   'Cu8 Ni6 C42'
_cell_volume   729.61689844
_cell_formula_units_Z   2
loop_
 _symmetry_equiv_pos_site_id
 _symmetry_equiv_pos_as_xyz
  1  'x, y, z'
loop_
 _atom_site_type_symbol
 _atom_site_label
 _atom_site_symmetry_multiplicity
 _atom_site_fract_x
 _atom_site_fract_y
 _atom_site_fract_z
 _atom_site_occupancy
  C  C0  1  0.96114700  0.99772600  0.01307100  1
  C  C1  1  0.96103100  0.99771200  0.51308300  1
  C  C2  1  0.96101700  0.99772400  0.23691000  1
  C  C3  1  0.96101700  0.99765900  0.73693100  1
  C  C4  1  0.50147600  0.50981800  0.25395700  1
  C  C5  1  0.50144600  0.50981100  0.75394700  1
  C  C6  1  0.50142700  0.50977100  0.99606100  1
  C  C7  1  0.50147000  0.50978000  0.49605600  1
  C  C8  1  0.04569500  0.72322000  0.87501100  1
  C  C9  1  0.04590900  0.72329200  0.37509500  1
  Ni  Ni10  1  0.46383400  0.21491400  0.37502600  1
  Ni  Ni11  1  0.46385500  0.21487500  0.87500200  1
  Ni  Ni12  1  0.54163800  0.78571900  0.12483900  1
  Ni  Ni13  1  0.54162600  0.78566900  0.62481700  1
  Ni  Ni14  1  0.95013600  0.29612800  0.12502000  1
  Ni  Ni15  1  0.95020000  0.29607900  0.62500600  1
  Cu  Cu16  1  0.09627200  0.58490800  0.12501300  1
  Cu  Cu17  1  0.09621000  0.58484900  0.62509500  1
  Cu  Cu18  1  0.38231600  0.07268900  0.12502900  1
  Cu  Cu19  1  0.38220500  0.07242000  0.62497200  1
  Cu  Cu20  1  0.62180200  0.90305700  0.37497500  1
  Cu  Cu21  1  0.62180100  0.90302500  0.87498200  1
  Cu  Cu22  1  0.91266900  0.43582700  0.37500100  1
  Cu  Cu23  1  0.91258000  0.43585100  0.87500400  1
  C  C24  1  0.23936600  0.45694100  0.12500100  1
  C  C25  1  0.23935100  0.45690300  0.62499000  1
  C  C26  1  0.22661700  0.44382500  0.37498700  1
  C  C27  1  0.22640800  0.44393500  0.87502900  1
  C  C28  1  0.30952600  0.88477800  0.37500700  1
  C  C29  1  0.30953500  0.88473200  0.87502600  1
  C  C30  1  0.22570100  0.94601100  0.12507000  1
  C  C31  1  0.22519800  0.94584000  0.62486400  1
  C  C32  1  0.72189900  0.04056200  0.37499700  1
  C  C33  1  0.72188200  0.04054300  0.87500300  1
  C  C34  1  0.69360100  0.05551700  0.12503900  1
  C  C35  1  0.69351300  0.05529900  0.62499900  1
  C  C36  1  0.78339200  0.56726400  0.12501000  1
  C  C37  1  0.78334700  0.56725100  0.62501900  1
  C  C38  1  0.78118200  0.56388700  0.37501100  1
  C  C39  1  0.78104600  0.56388100  0.87500600  1
  C  C40  1  0.21176300  0.65464800  0.03207100  1
  C  C41  1  0.21169000  0.65464000  0.53219300  1
  C  C42  1  0.21174900  0.65471200  0.21793100  1
  C  C43  1  0.21172800  0.65454800  0.71803500  1
  C  C44  1  0.27640200  0.14327700  0.03279700  1
  C  C45  1  0.27638600  0.14316200  0.53278400  1
  C  C46  1  0.27609900  0.14382600  0.21708600  1
  C  C47  1  0.27631600  0.14312600  0.71721600  1
  C  C48  1  0.76186400  0.84287900  0.28429500  1
  C  C49  1  0.76193100  0.84282400  0.78432600  1
  C  C50  1  0.76177400  0.84290400  0.46567200  1
  C  C51  1  0.76179200  0.84291300  0.96569900  1
  C  C52  1  0.78999100  0.36421100  0.28395800  1
  C  C53  1  0.79014800  0.36420500  0.78391500  1
  C  C54  1  0.79006500  0.36422100  0.46604800  1
  C  C55  1  0.78994900  0.36421400  0.96601400  1
