# generated using pymatgen
data_Cu4NiC7
_symmetry_space_group_name_H-M   'P 1'
_cell_length_a   6.60699400
_cell_length_b   11.20008000
_cell_length_c   15.80195100
_cell_angle_alpha   90.00000000
_cell_angle_beta   90.00000000
_cell_angle_gamma   90.00000000
_symmetry_Int_Tables_number   1
_chemical_formula_structural   Cu4NiC7
_chemical_formula_sum   'Cu16 Ni4 C28'
_cell_volume   1169.32638126
_cell_formula_units_Z   4
loop_
 _symmetry_equiv_pos_site_id
 _symmetry_equiv_pos_as_xyz
  1  'x, y, z'
loop_
 _atom_site_type_symbol
 _atom_site_label
 _atom_site_symmetry_multiplicity
 _atom_site_fract_x
 _atom_site_fract_y
 _atom_site_fract_z
 _atom_site_occupancy
  Ni  Ni0  1  0.64178900  0.78918900  0.80155300  1
  Ni  Ni1  1  0.85821100  0.21081100  0.30155300  1
  Ni  Ni2  1  0.14178900  0.71081100  0.19844700  1
  Ni  Ni3  1  0.35821100  0.28918900  0.69844700  1
  Cu  Cu4  1  0.22225200  0.43555700  0.91425600  1
  Cu  Cu5  1  0.27774800  0.56444300  0.41425600  1
  Cu  Cu6  1  0.72225200  0.06444300  0.08574400  1
  Cu  Cu7  1  0.77774800  0.93555700  0.58574400  1
  Cu  Cu8  1  0.92900800  0.29343600  0.88915000  1
  Cu  Cu9  1  0.57099200  0.70656400  0.38915000  1
  Cu  Cu10  1  0.42900800  0.20656400  0.11085000  1
  Cu  Cu11  1  0.07099200  0.79343600  0.61085000  1
  Cu  Cu12  1  0.94264700  0.49873500  0.78530800  1
  Cu  Cu13  1  0.55735300  0.50126500  0.28530800  1
  Cu  Cu14  1  0.44264700  0.00126500  0.21469200  1
  Cu  Cu15  1  0.05735300  0.99873500  0.71469200  1
  Cu  Cu16  1  0.90969700  0.44034300  0.03410300  1
  Cu  Cu17  1  0.59030300  0.55965700  0.53410300  1
  Cu  Cu18  1  0.40969700  0.05965700  0.96589700  1
  Cu  Cu19  1  0.09030300  0.94034300  0.46589700  1
  C  C20  1  0.15574300  0.51628200  0.83526500  1
  C  C21  1  0.34425700  0.48371800  0.33526500  1
  C  C22  1  0.65574300  0.98371800  0.16473500  1
  C  C23  1  0.84425700  0.01628200  0.66473500  1
  C  C24  1  0.13229900  0.47531600  0.00592200  1
  C  C25  1  0.36770100  0.52468400  0.50592200  1
  C  C26  1  0.63229900  0.02468400  0.99407800  1
  C  C27  1  0.86770100  0.97531600  0.49407800  1
  C  C28  1  0.82267400  0.33464300  0.97782300  1
  C  C29  1  0.67732600  0.66535700  0.47782300  1
  C  C30  1  0.32267400  0.16535700  0.02217700  1
  C  C31  1  0.17732600  0.83464300  0.52217700  1
  C  C32  1  0.86288900  0.36365100  0.80548300  1
  C  C33  1  0.63711100  0.63634900  0.30548300  1
  C  C34  1  0.36288900  0.13634900  0.19451700  1
  C  C35  1  0.13711100  0.86365100  0.69451700  1
  C  C36  1  0.72733700  0.59001300  0.01298700  1
  C  C37  1  0.77266300  0.40998700  0.51298700  1
  C  C38  1  0.22733700  0.90998700  0.98701300  1
  C  C39  1  0.27266300  0.09001300  0.48701300  1
  C  C40  1  0.88964200  0.41937600  0.12348200  1
  C  C41  1  0.61035800  0.58062400  0.62348200  1
  C  C42  1  0.38964200  0.08062400  0.87651800  1
  C  C43  1  0.11035800  0.91937600  0.37651800  1
  C  C44  1  0.57778100  0.70703400  0.83511100  1
  C  C45  1  0.92221900  0.29296600  0.33511100  1
  C  C46  1  0.07778100  0.79296600  0.16488900  1
  C  C47  1  0.42221900  0.20703400  0.66488900  1
