# generated using pymatgen
data_Cu2Ni2C35
_symmetry_space_group_name_H-M   'P 1'
_cell_length_a   12.67350800
_cell_length_b   6.58927100
_cell_length_c   9.30929617
_cell_angle_alpha   74.12145329
_cell_angle_beta   90.00000000
_cell_angle_gamma   90.00000000
_symmetry_Int_Tables_number   1
_chemical_formula_structural   Cu2Ni2C35
_chemical_formula_sum   'Cu4 Ni4 C70'
_cell_volume   747.74861869
_cell_formula_units_Z   2
loop_
 _symmetry_equiv_pos_site_id
 _symmetry_equiv_pos_as_xyz
  1  'x, y, z'
loop_
 _atom_site_type_symbol
 _atom_site_label
 _atom_site_symmetry_multiplicity
 _atom_site_fract_x
 _atom_site_fract_y
 _atom_site_fract_z
 _atom_site_occupancy
  C  C0  1  0.50000000  0.50000000  0.00000000  1
  C  C1  1  0.00000000  0.50000000  0.50000000  1
  C  C2  1  0.55683700  0.81369800  0.10181700  1
  C  C3  1  0.05683700  0.18630200  0.39818300  1
  C  C4  1  0.44316300  0.18630200  0.89818300  1
  C  C5  1  0.94316300  0.81369800  0.60181700  1
  C  C6  1  0.64098200  0.81357600  0.97518000  1
  C  C7  1  0.14098200  0.18642400  0.52482000  1
  C  C8  1  0.35901800  0.18642400  0.02482000  1
  C  C9  1  0.85901800  0.81357600  0.47518000  1
  C  C10  1  0.68021500  0.48882800  0.87063700  1
  C  C11  1  0.18021500  0.51117200  0.62936300  1
  C  C12  1  0.31978500  0.51117200  0.12936300  1
  C  C13  1  0.81978500  0.48882800  0.37063700  1
  C  C14  1  0.59227400  0.55982400  0.74240500  1
  C  C15  1  0.09227400  0.44017600  0.75759500  1
  C  C16  1  0.40772600  0.44017600  0.25759500  1
  C  C17  1  0.90772600  0.55982400  0.24240500  1
  C  C18  1  0.59063500  0.17224700  0.21405800  1
  C  C19  1  0.09063500  0.82775300  0.28594200  1
  C  C20  1  0.40936500  0.82775300  0.78594200  1
  C  C21  1  0.90936500  0.17224700  0.71405800  1
  C  C22  1  0.62574600  0.37685200  0.26073600  1
  C  C23  1  0.12574600  0.62314800  0.23926400  1
  C  C24  1  0.37425400  0.62314800  0.73926400  1
  C  C25  1  0.87425400  0.37685200  0.76073600  1
  C  C26  1  0.58026600  0.12623900  0.66456200  1
  C  C27  1  0.08026600  0.87376100  0.83543800  1
  C  C28  1  0.41973400  0.87376100  0.33543800  1
  C  C29  1  0.91973400  0.12623900  0.16456200  1
  C  C30  1  0.70556600  0.10686800  0.73030600  1
  C  C31  1  0.20556600  0.89313200  0.76969400  1
  C  C32  1  0.29443400  0.89313200  0.26969400  1
  C  C33  1  0.79443400  0.10686800  0.23030600  1
  C  C34  1  0.67376900  0.29300800  0.56875000  1
  C  C35  1  0.17376900  0.70699200  0.93125000  1
  C  C36  1  0.32623100  0.70699200  0.43125000  1
  C  C37  1  0.82623100  0.29300800  0.06875000  1
  C  C38  1  0.68066800  0.03801600  0.57247400  1
  C  C39  1  0.18066800  0.96198400  0.92752600  1
  C  C40  1  0.31933200  0.96198400  0.42752600  1
  C  C41  1  0.81933200  0.03801600  0.07247400  1
  Ni  Ni42  1  0.63524500  0.75033500  0.41926000  1
  Ni  Ni43  1  0.13524500  0.24966500  0.08074000  1
  Ni  Ni44  1  0.36475500  0.24966500  0.58074000  1
  Ni  Ni45  1  0.86475500  0.75033500  0.91926000  1
  Cu  Cu46  1  0.65994400  0.14087300  0.63543400  1
  Cu  Cu47  1  0.15994400  0.85912700  0.86456600  1
  Cu  Cu48  1  0.34005600  0.85912700  0.36456600  1
  Cu  Cu49  1  0.84005600  0.14087300  0.13543400  1
  C  C50  1  0.68314100  0.52131700  0.39833700  1
  C  C51  1  0.18314100  0.47868300  0.10166300  1
  C  C52  1  0.31685900  0.47868300  0.60166300  1
  C  C53  1  0.81685900  0.52131700  0.89833700  1
  C  C54  1  0.55879100  0.87306600  0.27411600  1
  C  C55  1  0.05879100  0.12693400  0.22588400  1
  C  C56  1  0.44120900  0.12693400  0.72588400  1
  C  C57  1  0.94120900  0.87306600  0.77411600  1
  C  C58  1  0.73712900  0.91203200  0.42565000  1
  C  C59  1  0.23712900  0.08796800  0.07435000  1
  C  C60  1  0.26287100  0.08796800  0.57435000  1
  C  C61  1  0.76287100  0.91203200  0.92565000  1
  C  C62  1  0.56513800  0.71259700  0.57534900  1
  C  C63  1  0.06513800  0.28740300  0.92465100  1
  C  C64  1  0.43486200  0.28740300  0.42465100  1
  C  C65  1  0.93486200  0.71259700  0.07534900  1
  C  C66  1  0.56511600  0.78317700  0.00343400  1
  C  C67  1  0.06511600  0.21682300  0.49656600  1
  C  C68  1  0.43488400  0.21682300  0.99656600  1
  C  C69  1  0.93488400  0.78317700  0.50343400  1
  C  C70  1  0.60582100  0.46538400  0.84544500  1
  C  C71  1  0.10582100  0.53461600  0.65455500  1
  C  C72  1  0.39417900  0.53461600  0.15455500  1
  C  C73  1  0.89417900  0.46538400  0.34544500  1
  C  C74  1  0.61967100  0.31574400  0.17567100  1
  C  C75  1  0.11967100  0.68425600  0.32432900  1
  C  C76  1  0.38032900  0.68425600  0.82432900  1
  C  C77  1  0.88032900  0.31574400  0.67567100  1
