# generated using pymatgen
data_CuNi3C10
_symmetry_space_group_name_H-M   'P 1'
_cell_length_a   5.88468277
_cell_length_b   5.88468277
_cell_length_c   9.44447800
_cell_angle_alpha   90.00000000
_cell_angle_beta   90.00000000
_cell_angle_gamma   120.00000871
_symmetry_Int_Tables_number   1
_chemical_formula_structural   CuNi3C10
_chemical_formula_sum   'Cu2 Ni6 C20'
_cell_volume   283.24005206
_cell_formula_units_Z   2
loop_
 _symmetry_equiv_pos_site_id
 _symmetry_equiv_pos_as_xyz
  1  'x, y, z'
loop_
 _atom_site_type_symbol
 _atom_site_label
 _atom_site_symmetry_multiplicity
 _atom_site_fract_x
 _atom_site_fract_y
 _atom_site_fract_z
 _atom_site_occupancy
  C  C0  1  0.33333300  0.66666700  0.89215500  1
  C  C1  1  0.00000000  0.00000000  0.99777700  1
  C  C2  1  0.00000000  0.00000000  0.49777700  1
  C  C3  1  0.66666700  0.33333300  0.39215500  1
  Ni  Ni4  1  0.17072300  0.82927700  0.21487300  1
  Ni  Ni5  1  0.17072300  0.34144600  0.21487300  1
  Ni  Ni6  1  0.65855400  0.82927700  0.21487300  1
  Ni  Ni7  1  0.34144600  0.17072300  0.71487300  1
  Ni  Ni8  1  0.82927700  0.65855400  0.71487300  1
  Ni  Ni9  1  0.82927700  0.17072300  0.71487300  1
  Cu  Cu10  1  0.33333300  0.66666700  0.48845100  1
  Cu  Cu11  1  0.66666700  0.33333300  0.98845100  1
  C  C12  1  0.16180000  0.83820000  0.60240200  1
  C  C13  1  0.03986300  0.51993200  0.33784500  1
  C  C14  1  0.33333300  0.66666700  0.10110800  1
  C  C15  1  0.00000000  0.00000000  0.30874200  1
  C  C16  1  0.00000000  0.00000000  0.80874200  1
  C  C17  1  0.16180000  0.32360100  0.60240200  1
  C  C18  1  0.48006800  0.96013700  0.33784500  1
  C  C19  1  0.48006800  0.51993200  0.33784500  1
  C  C20  1  0.32360100  0.16180000  0.10240200  1
  C  C21  1  0.67639900  0.83820000  0.60240200  1
  C  C22  1  0.51993200  0.48006800  0.83784500  1
  C  C23  1  0.51993200  0.03986300  0.83784500  1
  C  C24  1  0.66666700  0.33333300  0.60110800  1
  C  C25  1  0.83820000  0.67639900  0.10240200  1
  C  C26  1  0.96013700  0.48006800  0.83784500  1
  C  C27  1  0.83820000  0.16180000  0.10240200  1
