# generated using pymatgen
data_Cu4Ni14C9
_symmetry_space_group_name_H-M   'P 1'
_cell_length_a   6.50360600
_cell_length_b   11.11710200
_cell_length_c   12.44044900
_cell_angle_alpha   90.00000000
_cell_angle_beta   90.00000000
_cell_angle_gamma   90.00000000
_symmetry_Int_Tables_number   1
_chemical_formula_structural   Cu4Ni14C9
_chemical_formula_sum   'Cu16 Ni56 C36'
_cell_volume   899.46002906
_cell_formula_units_Z   4
loop_
 _symmetry_equiv_pos_site_id
 _symmetry_equiv_pos_as_xyz
  1  'x, y, z'
loop_
 _atom_site_type_symbol
 _atom_site_label
 _atom_site_symmetry_multiplicity
 _atom_site_fract_x
 _atom_site_fract_y
 _atom_site_fract_z
 _atom_site_occupancy
  C  C0  1  0.50000000  0.50000000  0.00000000  1
  C  C1  1  0.50000000  0.00000000  0.50000000  1
  C  C2  1  0.00000000  0.50000000  0.50000000  1
  C  C3  1  0.00000000  0.00000000  0.00000000  1
  Ni  Ni4  1  0.24259500  0.65160900  0.25829000  1
  Ni  Ni5  1  0.75740500  0.15160900  0.24171000  1
  Ni  Ni6  1  0.25740500  0.34839100  0.75829000  1
  Ni  Ni7  1  0.74259500  0.84839100  0.74171000  1
  Ni  Ni8  1  0.75740500  0.34839100  0.74171000  1
  Ni  Ni9  1  0.24259500  0.84839100  0.75829000  1
  Ni  Ni10  1  0.74259500  0.65160900  0.24171000  1
  Ni  Ni11  1  0.25740500  0.15160900  0.25829000  1
  Ni  Ni12  1  0.36113000  0.71998700  0.15998100  1
  Ni  Ni13  1  0.63887000  0.21998700  0.34001900  1
  Ni  Ni14  1  0.13887000  0.28001300  0.65998100  1
  Ni  Ni15  1  0.86113000  0.78001300  0.84001900  1
  Ni  Ni16  1  0.63887000  0.28001300  0.84001900  1
  Ni  Ni17  1  0.36113000  0.78001300  0.65998100  1
  Ni  Ni18  1  0.86113000  0.71998700  0.34001900  1
  Ni  Ni19  1  0.13887000  0.21998700  0.15998100  1
  Ni  Ni20  1  0.53396300  0.74806400  0.89365500  1
  Ni  Ni21  1  0.46603700  0.24806400  0.60634500  1
  Ni  Ni22  1  0.96603700  0.25193600  0.39365500  1
  Ni  Ni23  1  0.03396300  0.75193600  0.10634500  1
  Ni  Ni24  1  0.46603700  0.25193600  0.10634500  1
  Ni  Ni25  1  0.53396300  0.75193600  0.39365500  1
  Ni  Ni26  1  0.03396300  0.74806400  0.60634500  1
  Ni  Ni27  1  0.96603700  0.24806400  0.89365500  1
  Ni  Ni28  1  0.29435300  0.75085900  0.95282500  1
  Ni  Ni29  1  0.70564700  0.25085900  0.54717500  1
  Ni  Ni30  1  0.20564700  0.24914100  0.45282500  1
  Ni  Ni31  1  0.79435300  0.74914100  0.04717500  1
  Ni  Ni32  1  0.70564700  0.24914100  0.04717500  1
  Ni  Ni33  1  0.29435300  0.74914100  0.45282500  1
  Ni  Ni34  1  0.79435300  0.75085900  0.54717500  1
  Ni  Ni35  1  0.20564700  0.25085900  0.95282500  1
  Ni  Ni36  1  0.81728200  0.35902900  0.21655600  1
  Ni  Ni37  1  0.18271800  0.85902900  0.28344400  1
  Ni  Ni38  1  0.68271800  0.64097100  0.71655600  1
  Ni  Ni39  1  0.31728200  0.14097100  0.78344400  1
  Ni  Ni40  1  0.18271800  0.64097100  0.78344400  1
  Ni  Ni41  1  0.81728200  0.14097100  0.71655600  1
  Ni  Ni42  1  0.31728200  0.35902900  0.28344400  1
  Ni  Ni43  1  0.68271800  0.85902900  0.21655600  1
  Ni  Ni44  1  0.97219300  0.48149700  0.23782300  1
  Ni  Ni45  1  0.02780700  0.98149700  0.26217700  1
  Ni  Ni46  1  0.52780700  0.51850300  0.73782300  1
  Ni  Ni47  1  0.47219300  0.01850300  0.76217700  1
  Ni  Ni48  1  0.02780700  0.51850300  0.76217700  1
  Ni  Ni49  1  0.97219300  0.01850300  0.73782300  1
  Ni  Ni50  1  0.47219300  0.48149700  0.26217700  1
  Ni  Ni51  1  0.52780700  0.98149700  0.23782300  1
  Ni  Ni52  1  0.94323400  0.43213300  0.11319800  1
  Ni  Ni53  1  0.05676600  0.93213300  0.38680200  1
  Ni  Ni54  1  0.55676600  0.56786700  0.61319800  1
  Ni  Ni55  1  0.44323400  0.06786700  0.88680200  1
  Ni  Ni56  1  0.05676600  0.56786700  0.88680200  1
  Ni  Ni57  1  0.94323400  0.06786700  0.61319800  1
  Ni  Ni58  1  0.44323400  0.43213300  0.38680200  1
  Ni  Ni59  1  0.55676600  0.93213300  0.11319800  1
  Cu  Cu60  1  0.43673700  0.70769200  0.94838400  1
  Cu  Cu61  1  0.56326300  0.20769200  0.55161600  1
  Cu  Cu62  1  0.06326300  0.29230800  0.44838400  1
  Cu  Cu63  1  0.93673700  0.79230800  0.05161600  1
  Cu  Cu64  1  0.56326300  0.29230800  0.05161600  1
  Cu  Cu65  1  0.43673700  0.79230800  0.44838400  1
  Cu  Cu66  1  0.93673700  0.70769200  0.55161600  1
  Cu  Cu67  1  0.06326300  0.20769200  0.94838400  1
  Cu  Cu68  1  0.86440100  0.44286700  0.18528400  1
  Cu  Cu69  1  0.13559900  0.94286700  0.31471600  1
  Cu  Cu70  1  0.63559900  0.55713300  0.68528400  1
  Cu  Cu71  1  0.36440100  0.05713300  0.81471600  1
  Cu  Cu72  1  0.13559900  0.55713300  0.81471600  1
  Cu  Cu73  1  0.86440100  0.05713300  0.68528400  1
  Cu  Cu74  1  0.36440100  0.44286700  0.31471600  1
  Cu  Cu75  1  0.63559900  0.94286700  0.18528400  1
  C  C76  1  0.24959600  0.49390900  0.07048000  1
  C  C77  1  0.75040400  0.99390900  0.42952000  1
  C  C78  1  0.25040400  0.50609100  0.57048000  1
  C  C79  1  0.74959600  0.00609100  0.92952000  1
  C  C80  1  0.75040400  0.50609100  0.92952000  1
  C  C81  1  0.24959600  0.00609100  0.57048000  1
  C  C82  1  0.74959600  0.49390900  0.42952000  1
  C  C83  1  0.25040400  0.99390900  0.07048000  1
  C  C84  1  0.52992200  0.70172700  0.05099500  1
  C  C85  1  0.47007800  0.20172700  0.44900500  1
  C  C86  1  0.97007800  0.29827300  0.55099500  1
  C  C87  1  0.02992200  0.79827300  0.94900500  1
  C  C88  1  0.47007800  0.29827300  0.94900500  1
  C  C89  1  0.52992200  0.79827300  0.55099500  1
  C  C90  1  0.02992200  0.70172700  0.44900500  1
  C  C91  1  0.97007800  0.20172700  0.05099500  1
  C  C92  1  0.69117500  0.51894800  0.17186900  1
  C  C93  1  0.30882500  0.01894800  0.32813100  1
  C  C94  1  0.80882500  0.48105200  0.67186900  1
  C  C95  1  0.19117500  0.98105200  0.82813100  1
  C  C96  1  0.30882500  0.48105200  0.82813100  1
  C  C97  1  0.69117500  0.98105200  0.67186900  1
  C  C98  1  0.19117500  0.51894800  0.32813100  1
  C  C99  1  0.80882500  0.01894800  0.17186900  1
  C  C100  1  0.26363600  0.73086500  0.22187300  1
  C  C101  1  0.73636400  0.23086500  0.27812700  1
  C  C102  1  0.23636400  0.26913500  0.72187300  1
  C  C103  1  0.76363600  0.76913500  0.77812700  1
  C  C104  1  0.73636400  0.26913500  0.77812700  1
  C  C105  1  0.26363600  0.76913500  0.72187300  1
  C  C106  1  0.76363600  0.73086500  0.27812700  1
  C  C107  1  0.23636400  0.23086500  0.22187300  1
