# generated using pymatgen
data_Cu(NiC3)2
_symmetry_space_group_name_H-M   'P 1'
_cell_length_a   7.92110400
_cell_length_b   8.42610000
_cell_length_c   24.20974968
_cell_angle_alpha   89.12878941
_cell_angle_beta   90.00000000
_cell_angle_gamma   90.00000000
_symmetry_Int_Tables_number   1
_chemical_formula_structural   Cu(NiC3)2
_chemical_formula_sum   'Cu4 Ni8 C24'
_cell_volume   1615.66908647
_cell_formula_units_Z   4
loop_
 _symmetry_equiv_pos_site_id
 _symmetry_equiv_pos_as_xyz
  1  'x, y, z'
loop_
 _atom_site_type_symbol
 _atom_site_label
 _atom_site_symmetry_multiplicity
 _atom_site_fract_x
 _atom_site_fract_y
 _atom_site_fract_z
 _atom_site_occupancy
  Ni  Ni0  1  0.55549800  0.23055800  0.73964200  1
  Ni  Ni1  1  0.98317600  0.33799500  0.90811000  1
  Ni  Ni2  1  0.94450200  0.23055800  0.23964200  1
  Ni  Ni3  1  0.51682400  0.33799500  0.40811000  1
  Ni  Ni4  1  0.48317600  0.66200500  0.59189000  1
  Ni  Ni5  1  0.05549800  0.76944200  0.76035800  1
  Ni  Ni6  1  0.01682400  0.66200500  0.09189000  1
  Ni  Ni7  1  0.44450200  0.76944200  0.26035800  1
  Cu  Cu8  1  0.03131600  0.14041300  0.58622900  1
  Cu  Cu9  1  0.46868400  0.14041300  0.08622900  1
  Cu  Cu10  1  0.53131600  0.85958700  0.91377100  1
  Cu  Cu11  1  0.96868400  0.85958700  0.41377100  1
  C  C12  1  0.79940400  0.01917800  0.82677100  1
  C  C13  1  0.29473400  0.10534500  0.84410900  1
  C  C14  1  0.70497800  0.13273600  0.98314300  1
  C  C15  1  0.70059600  0.01917800  0.32677100  1
  C  C16  1  0.20526600  0.10534500  0.34410900  1
  C  C17  1  0.79502200  0.13273600  0.48314300  1
  C  C18  1  0.29018100  0.36287800  0.52434500  1
  C  C19  1  0.76531700  0.38788700  0.63531900  1
  C  C20  1  0.25637800  0.47947700  0.69213600  1
  C  C21  1  0.75637800  0.52052300  0.80786400  1
  C  C22  1  0.20981900  0.36287800  0.02434500  1
  C  C23  1  0.26531700  0.61211300  0.86468100  1
  C  C24  1  0.73468300  0.38788700  0.13531900  1
  C  C25  1  0.79018100  0.63712200  0.97565500  1
  C  C26  1  0.24362200  0.47947700  0.19213600  1
  C  C27  1  0.74362200  0.52052300  0.30786400  1
  C  C28  1  0.23468300  0.61211300  0.36468100  1
  C  C29  1  0.70981900  0.63712200  0.47565500  1
  C  C30  1  0.20497800  0.86726400  0.51685700  1
  C  C31  1  0.79473400  0.89465500  0.65589100  1
  C  C32  1  0.29940400  0.98082200  0.67322900  1
  C  C33  1  0.29502200  0.86726400  0.01685700  1
  C  C34  1  0.70526600  0.89465500  0.15589100  1
  C  C35  1  0.20059600  0.98082200  0.17322900  1
