# generated using pymatgen
data_CuNi3C32
_symmetry_space_group_name_H-M   'P 1'
_cell_length_a   8.48920539
_cell_length_b   8.48920539
_cell_length_c   8.48920614
_cell_angle_alpha   61.01302669
_cell_angle_beta   61.01302669
_cell_angle_gamma   61.01302842
_symmetry_Int_Tables_number   1
_chemical_formula_structural   CuNi3C32
_chemical_formula_sum   'Cu1 Ni3 C32'
_cell_volume   442.46997267
_cell_formula_units_Z   1
loop_
 _symmetry_equiv_pos_site_id
 _symmetry_equiv_pos_as_xyz
  1  'x, y, z'
loop_
 _atom_site_type_symbol
 _atom_site_label
 _atom_site_symmetry_multiplicity
 _atom_site_fract_x
 _atom_site_fract_y
 _atom_site_fract_z
 _atom_site_occupancy
  Ni  Ni0  1  0.85472300  0.85472300  0.85472300  1
  Ni  Ni1  1  0.64193100  0.64193100  0.64193100  1
  Ni  Ni2  1  0.35766800  0.35766800  0.35766800  1
  Cu  Cu3  1  0.14229900  0.14229900  0.14229900  1
  C  C4  1  0.99848500  0.99848500  0.99848500  1
  C  C5  1  0.49900200  0.49900200  0.49900200  1
  C  C6  1  0.54532700  0.95979500  0.25187600  1
  C  C7  1  0.25187600  0.54532700  0.95979500  1
  C  C8  1  0.95979500  0.25187600  0.54532700  1
  C  C9  1  0.04091300  0.75002700  0.45303700  1
  C  C10  1  0.75002700  0.45303700  0.04091300  1
  C  C11  1  0.45303700  0.04091300  0.75002700  1
  C  C12  1  0.49245500  0.88195300  0.68488800  1
  C  C13  1  0.88195300  0.68488800  0.49245500  1
  C  C14  1  0.74922200  0.94103500  0.09733800  1
  C  C15  1  0.68488800  0.49245500  0.88195300  1
  C  C16  1  0.39143600  0.99449400  0.18428500  1
  C  C17  1  0.55764800  0.75960400  0.41399800  1
  C  C18  1  0.09733800  0.74922200  0.94103500  1
  C  C19  1  0.41399800  0.55764800  0.75960400  1
  C  C20  1  0.01220700  0.81703800  0.60321800  1
  C  C21  1  0.75960400  0.41399800  0.55764800  1
  C  C22  1  0.05463500  0.91045900  0.25035700  1
  C  C23  1  0.81703800  0.60321800  0.01220700  1
  C  C24  1  0.18428500  0.39143600  0.99449400  1
  C  C25  1  0.94103500  0.09733800  0.74922200  1
  C  C26  1  0.24050100  0.58974200  0.43600700  1
  C  C27  1  0.99449400  0.18428500  0.39143600  1
  C  C28  1  0.58974200  0.43600700  0.24050100  1
  C  C29  1  0.91045900  0.25035700  0.05463500  1
  C  C30  1  0.43600700  0.24050100  0.58974200  1
  C  C31  1  0.60321800  0.01220700  0.81703800  1
  C  C32  1  0.31482100  0.50998700  0.11758700  1
  C  C33  1  0.25035700  0.05463500  0.91045900  1
  C  C34  1  0.11758700  0.31482100  0.50998700  1
  C  C35  1  0.50998700  0.11758700  0.31482100  1
