# generated using pymatgen
data_Cu3Ni13C40
_symmetry_space_group_name_H-M   'P 1'
_cell_length_a   8.28513528
_cell_length_b   8.28513528
_cell_length_c   10.35795694
_cell_angle_alpha   66.62814131
_cell_angle_beta   66.62814131
_cell_angle_gamma   89.30470752
_symmetry_Int_Tables_number   1
_chemical_formula_structural   Cu3Ni13C40
_chemical_formula_sum   'Cu3 Ni13 C40'
_cell_volume   590.14998128
_cell_formula_units_Z   1
loop_
 _symmetry_equiv_pos_site_id
 _symmetry_equiv_pos_as_xyz
  1  'x, y, z'
loop_
 _atom_site_type_symbol
 _atom_site_label
 _atom_site_symmetry_multiplicity
 _atom_site_fract_x
 _atom_site_fract_y
 _atom_site_fract_z
 _atom_site_occupancy
  C  C0  1  0.18478800  0.18478800  0.88388600  1
  C  C1  1  0.68228800  0.68228800  0.88738000  1
  C  C2  1  0.56609100  0.06581500  0.61648100  1
  C  C3  1  0.06581500  0.56609100  0.61648100  1
  C  C4  1  0.43390900  0.93418500  0.38351900  1
  C  C5  1  0.93418500  0.43390900  0.38351900  1
  C  C6  1  0.81521200  0.81521200  0.11611400  1
  C  C7  1  0.31771200  0.31771200  0.11262000  1
  Ni  Ni8  1  0.00000000  0.50000000  0.00000000  1
  Ni  Ni9  1  0.50000000  0.00000000  0.00000000  1
  Ni  Ni10  1  0.12121900  0.87327500  0.75488200  1
  Ni  Ni11  1  0.87327500  0.12121900  0.75488200  1
  Ni  Ni12  1  0.37491800  0.62558600  0.74987100  1
  Ni  Ni13  1  0.62558600  0.37491800  0.74987100  1
  Ni  Ni14  1  0.00000000  0.00000000  0.50000000  1
  Ni  Ni15  1  0.24868700  0.24868700  0.50107400  1
  Ni  Ni16  1  0.75131300  0.75131300  0.49892600  1
  Ni  Ni17  1  0.62508200  0.37441400  0.25012900  1
  Ni  Ni18  1  0.12672500  0.87878100  0.24511800  1
  Ni  Ni19  1  0.87878100  0.12672500  0.24511800  1
  Ni  Ni20  1  0.37441400  0.62508200  0.25012900  1
  Cu  Cu21  1  0.74858300  0.25141700  0.00000000  1
  Cu  Cu22  1  0.25141700  0.74858300  0.00000000  1
  Cu  Cu23  1  0.50000000  0.50000000  0.50000000  1
  C  C24  1  0.02004000  0.74580300  0.97979600  1
  C  C25  1  0.74580300  0.02004000  0.97979600  1
  C  C26  1  0.24780100  0.51898000  0.97593100  1
  C  C27  1  0.51898000  0.24780100  0.97593100  1
  C  C28  1  0.85451200  0.35520400  0.76357200  1
  C  C29  1  0.35520400  0.85451200  0.76357200  1
  C  C30  1  0.14361200  0.64493100  0.74480200  1
  C  C31  1  0.64493100  0.14361200  0.74480200  1
  C  C32  1  0.39565800  0.39565800  0.73573500  1
  C  C33  1  0.88845400  0.88845400  0.75388000  1
  C  C34  1  0.10509000  0.10509000  0.75793800  1
  C  C35  1  0.60583200  0.60583200  0.75618400  1
  C  C36  1  0.50343000  0.73176400  0.52297900  1
  C  C37  1  0.73176400  0.50343000  0.52297900  1
  C  C38  1  0.99952800  0.22509400  0.52581100  1
  C  C39  1  0.22509400  0.99952800  0.52581100  1
  C  C40  1  0.49657000  0.26823600  0.47702100  1
  C  C41  1  0.26823600  0.49657000  0.47702100  1
  C  C42  1  0.00047200  0.77490600  0.47418900  1
  C  C43  1  0.77490600  0.00047200  0.47418900  1
  C  C44  1  0.60434200  0.60434200  0.26426500  1
  C  C45  1  0.39416800  0.39416800  0.24381600  1
  C  C46  1  0.89491000  0.89491000  0.24206200  1
  C  C47  1  0.11154600  0.11154600  0.24612000  1
  C  C48  1  0.35506900  0.85638800  0.25519800  1
  C  C49  1  0.64479600  0.14548800  0.23642800  1
  C  C50  1  0.14548800  0.64479600  0.23642800  1
  C  C51  1  0.85638800  0.35506900  0.25519800  1
  C  C52  1  0.48102000  0.75219900  0.02406900  1
  C  C53  1  0.97996000  0.25419700  0.02020400  1
  C  C54  1  0.75219900  0.48102000  0.02406900  1
  C  C55  1  0.25419700  0.97996000  0.02020400  1
