# generated using pymatgen
data_Cu4Ni2C9
_symmetry_space_group_name_H-M   'P 1'
_cell_length_a   10.26639000
_cell_length_b   9.03907400
_cell_length_c   12.90184130
_cell_angle_alpha   64.79573412
_cell_angle_beta   90.00000000
_cell_angle_gamma   90.00000000
_symmetry_Int_Tables_number   1
_chemical_formula_structural   Cu4Ni2C9
_chemical_formula_sum   'Cu24 Ni12 C54'
_cell_volume   1083.28755770
_cell_formula_units_Z   6
loop_
 _symmetry_equiv_pos_site_id
 _symmetry_equiv_pos_as_xyz
  1  'x, y, z'
loop_
 _atom_site_type_symbol
 _atom_site_label
 _atom_site_symmetry_multiplicity
 _atom_site_fract_x
 _atom_site_fract_y
 _atom_site_fract_z
 _atom_site_occupancy
  C  C0  1  0.50000000  0.00000000  0.50000000  1
  C  C1  1  0.00000000  0.00000000  0.00000000  1
  C  C2  1  0.54743100  0.26069400  0.86305700  1
  C  C3  1  0.04743100  0.73930600  0.63694300  1
  C  C4  1  0.45256900  0.73930600  0.13694300  1
  C  C5  1  0.95256900  0.26069400  0.36305700  1
  C  C6  1  0.34223800  0.16052100  0.72602800  1
  C  C7  1  0.84223800  0.83947900  0.77397200  1
  C  C8  1  0.65776200  0.83947900  0.27397200  1
  C  C9  1  0.15776200  0.16052100  0.22602800  1
  C  C10  1  0.31485300  0.05435400  0.85705800  1
  C  C11  1  0.81485300  0.94564600  0.64294200  1
  C  C12  1  0.68514700  0.94564600  0.14294200  1
  C  C13  1  0.18514700  0.05435400  0.35705800  1
  C  C14  1  0.52200800  0.54673200  0.61565400  1
  C  C15  1  0.02200800  0.45326800  0.88434600  1
  C  C16  1  0.47799200  0.45326800  0.38434600  1
  C  C17  1  0.97799200  0.54673200  0.11565400  1
  C  C18  1  0.44873600  0.39271500  0.62033200  1
  C  C19  1  0.94873600  0.60728500  0.87966800  1
  C  C20  1  0.55126400  0.60728500  0.37966800  1
  C  C21  1  0.05126400  0.39271500  0.12033200  1
  C  C22  1  0.43355400  0.56213000  0.88454900  1
  C  C23  1  0.93355400  0.43787000  0.61545100  1
  C  C24  1  0.56644600  0.43787000  0.11545100  1
  C  C25  1  0.06644600  0.56213000  0.38454900  1
  C  C26  1  0.32510300  0.42771000  0.93981500  1
  C  C27  1  0.82510300  0.57229000  0.56018500  1
  C  C28  1  0.67489700  0.57229000  0.06018500  1
  C  C29  1  0.17489700  0.42771000  0.43981500  1
  C  C30  1  0.67820700  0.19134300  0.66870600  1
  C  C31  1  0.17820700  0.80865700  0.83129400  1
  C  C32  1  0.32179300  0.80865700  0.33129400  1
  C  C33  1  0.82179300  0.19134300  0.16870600  1
  C  C34  1  0.78875100  0.19145000  0.75110400  1
  C  C35  1  0.28875100  0.80855000  0.74889600  1
  C  C36  1  0.21124900  0.80855000  0.24889600  1
  C  C37  1  0.71124900  0.19145000  0.25110400  1
  C  C38  1  0.64877300  0.61327100  0.78689900  1
  C  C39  1  0.14877300  0.38672900  0.71310100  1
  C  C40  1  0.35122700  0.38672900  0.21310100  1
  C  C41  1  0.85122700  0.61327100  0.28689900  1
  C  C42  1  0.77706800  0.50683000  0.81410100  1
  C  C43  1  0.27706800  0.49317000  0.68589900  1
  C  C44  1  0.22293200  0.49317000  0.18589900  1
  C  C45  1  0.72293200  0.50683000  0.31410100  1
  C  C46  1  0.45770900  0.11143800  0.11858800  1
  C  C47  1  0.95770900  0.88856200  0.38141200  1
  C  C48  1  0.54229100  0.88856200  0.88141200  1
  C  C49  1  0.04229100  0.11143800  0.61858800  1
  C  C50  1  0.34007800  0.11410500  0.04347000  1
  C  C51  1  0.84007800  0.88589500  0.45653000  1
  C  C52  1  0.65992200  0.88589500  0.95653000  1
  C  C53  1  0.15992200  0.11410500  0.54347000  1
  Ni  Ni54  1  0.50257700  0.82452800  0.73749000  1
  Ni  Ni55  1  0.00257700  0.17547200  0.76251000  1
  Ni  Ni56  1  0.49742300  0.17547200  0.26251000  1
  Ni  Ni57  1  0.99742300  0.82452800  0.23749000  1
  Ni  Ni58  1  0.64074400  0.75216500  0.47162300  1
  Ni  Ni59  1  0.14074400  0.24783500  0.02837700  1
  Ni  Ni60  1  0.35925600  0.24783500  0.52837700  1
  Ni  Ni61  1  0.85925600  0.75216500  0.97162300  1
  Ni  Ni62  1  0.72518200  0.15364500  0.51250500  1
  Ni  Ni63  1  0.22518200  0.84635500  0.98749500  1
  Ni  Ni64  1  0.27481800  0.84635500  0.48749500  1
  Ni  Ni65  1  0.77481800  0.15364500  0.01250500  1
  Cu  Cu66  1  0.35964400  0.15406800  0.80269700  1
  Cu  Cu67  1  0.85964400  0.84593200  0.69730300  1
  Cu  Cu68  1  0.64035600  0.84593200  0.19730300  1
  Cu  Cu69  1  0.14035600  0.15406800  0.30269700  1
  Cu  Cu70  1  0.46723900  0.45438500  0.66568300  1
  Cu  Cu71  1  0.96723900  0.54561500  0.83431700  1
  Cu  Cu72  1  0.53276100  0.54561500  0.33431700  1
  Cu  Cu73  1  0.03276100  0.45438500  0.16568300  1
  Cu  Cu74  1  0.41557600  0.44573600  0.91292400  1
  Cu  Cu75  1  0.91557600  0.55426400  0.58707600  1
  Cu  Cu76  1  0.58442400  0.55426400  0.08707600  1
  Cu  Cu77  1  0.08442400  0.44573600  0.41292400  1
  Cu  Cu78  1  0.69335900  0.20054900  0.74084600  1
  Cu  Cu79  1  0.19335900  0.79945100  0.75915400  1
  Cu  Cu80  1  0.30664100  0.79945100  0.25915400  1
  Cu  Cu81  1  0.80664100  0.20054900  0.24084600  1
  Cu  Cu82  1  0.68133100  0.50086800  0.81650000  1
  Cu  Cu83  1  0.18133100  0.49913200  0.68350000  1
  Cu  Cu84  1  0.31866900  0.49913200  0.18350000  1
  Cu  Cu85  1  0.81866900  0.50086800  0.31650000  1
  Cu  Cu86  1  0.43388300  0.08937200  0.05198000  1
  Cu  Cu87  1  0.93388300  0.91062800  0.44802000  1
  Cu  Cu88  1  0.56611700  0.91062800  0.94802000  1
  Cu  Cu89  1  0.06611700  0.08937200  0.55198000  1
