# generated using pymatgen
data_Cu2Ni2C21
_symmetry_space_group_name_H-M   'P 1'
_cell_length_a   6.73205000
_cell_length_b   9.01376683
_cell_length_c   15.71985713
_cell_angle_alpha   90.76537941
_cell_angle_beta   90.17173608
_cell_angle_gamma   90.17662764
_symmetry_Int_Tables_number   1
_chemical_formula_structural   Cu2Ni2C21
_chemical_formula_sum   'Cu6 Ni6 C63'
_cell_volume   953.80463348
_cell_formula_units_Z   3
loop_
 _symmetry_equiv_pos_site_id
 _symmetry_equiv_pos_as_xyz
  1  'x, y, z'
loop_
 _atom_site_type_symbol
 _atom_site_label
 _atom_site_symmetry_multiplicity
 _atom_site_fract_x
 _atom_site_fract_y
 _atom_site_fract_z
 _atom_site_occupancy
  C  C0  1  0.24091100  0.91508500  0.58316100  1
  C  C1  1  0.24038200  0.91349600  0.26028100  1
  C  C2  1  0.00741900  0.74369000  0.75178500  1
  C  C3  1  0.49348300  0.74337600  0.75042400  1
  C  C4  1  0.48963200  0.73660500  0.41803500  1
  C  C5  1  0.00302200  0.75762700  0.07796200  1
  C  C6  1  0.49865400  0.75814200  0.07714700  1
  C  C7  1  0.50142400  0.24133500  0.92236100  1
  C  C8  1  0.99854500  0.24167600  0.92233700  1
  C  C9  1  0.50274500  0.26026500  0.58323100  1
  C  C10  1  0.99657300  0.26097700  0.58408900  1
  C  C11  1  0.50794000  0.25697500  0.24778000  1
  C  C12  1  0.99134000  0.25675300  0.24653500  1
  C  C13  1  0.75057800  0.08343400  0.74698800  1
  C  C14  1  0.75931100  0.07068100  0.41442000  1
  C  C15  1  0.75037200  0.64297400  0.92622900  1
  C  C16  1  0.75564700  0.64674400  0.58888900  1
  C  C17  1  0.75766900  0.64668200  0.26438900  1
  C  C18  1  0.25004600  0.35672700  0.74068500  1
  C  C19  1  0.24775700  0.35758400  0.40594500  1
  C  C20  1  0.25210400  0.35666700  0.07312800  1
  Ni  Ni21  1  0.25026700  0.58069800  0.90222000  1
  Ni  Ni22  1  0.25178700  0.58376500  0.56884500  1
  Ni  Ni23  1  0.25167700  0.58220800  0.23013300  1
  Ni  Ni24  1  0.74998900  0.41808000  0.76685500  1
  Ni  Ni25  1  0.74739600  0.41253000  0.43057400  1
  Ni  Ni26  1  0.75115500  0.42330900  0.10017500  1
  Cu  Cu27  1  0.75013900  0.92961900  0.90659800  1
  Cu  Cu28  1  0.74544300  0.94273400  0.57905500  1
  Cu  Cu29  1  0.74659800  0.93257000  0.24381300  1
  Cu  Cu30  1  0.25000500  0.06447800  0.75351200  1
  Cu  Cu31  1  0.25377600  0.06447700  0.42292700  1
  Cu  Cu32  1  0.25022300  0.07071100  0.09422200  1
  C  C33  1  0.25105300  0.92290700  0.75440500  1
  C  C34  1  0.26720500  0.92366400  0.42556600  1
  C  C35  1  0.25079400  0.93027900  0.09640600  1
  C  C36  1  0.75093000  0.85612900  0.97828500  1
  C  C37  1  0.75438900  0.87966000  0.65337500  1
  C  C38  1  0.74238900  0.85868900  0.31625800  1
  C  C39  1  0.75005900  0.84800100  0.83747500  1
  C  C40  1  0.73416600  0.86014000  0.51118400  1
  C  C41  1  0.75062900  0.85199200  0.17537600  1
  C  C42  1  0.06206200  0.66914800  0.92919200  1
  C  C43  1  0.43910200  0.66940100  0.92938000  1
  C  C44  1  0.06882100  0.67697000  0.59589300  1
  C  C45  1  0.43619200  0.67900800  0.59418000  1
  C  C46  1  0.06594600  0.67860500  0.24768600  1
  C  C47  1  0.43502700  0.67774400  0.25583200  1
  C  C48  1  0.24998500  0.56254000  0.80295700  1
  C  C49  1  0.75012100  0.57014900  0.72323300  1
  C  C50  1  0.25685500  0.55437400  0.47084500  1
  C  C51  1  0.73960700  0.56525700  0.38776600  1
  C  C52  1  0.25886000  0.55297900  0.13043400  1
  C  C53  1  0.75068200  0.57662800  0.05732100  1
  C  C54  1  0.25018600  0.42394000  0.94272000  1
  C  C55  1  0.75002800  0.44490000  0.86694500  1
  C  C56  1  0.25145900  0.43026200  0.61276800  1
  C  C57  1  0.75034500  0.43399300  0.52937200  1
  C  C58  1  0.24798900  0.43082100  0.27475900  1
  C  C59  1  0.75114900  0.44759900  0.20024400  1
  C  C60  1  0.56661100  0.32140000  0.74318500  1
  C  C61  1  0.93306700  0.32200300  0.74342600  1
  C  C62  1  0.56388400  0.31443600  0.40532100  1
  C  C63  1  0.93274000  0.32009100  0.40325700  1
  C  C64  1  0.56353700  0.33104300  0.07554900  1
  C  C65  1  0.93913100  0.33259800  0.07580300  1
  C  C66  1  0.24971200  0.14844500  0.82127700  1
  C  C67  1  0.24563200  0.14705000  0.49187000  1
  C  C68  1  0.24997900  0.15252100  0.16321800  1
  C  C69  1  0.24908600  0.13273300  0.67955100  1
  C  C70  1  0.24654400  0.13248500  0.34927700  1
  C  C71  1  0.24983600  0.14499900  0.02245600  1
  C  C72  1  0.74957500  0.07052100  0.90417600  1
  C  C73  1  0.74978000  0.08640200  0.57380100  1
  C  C74  1  0.74874900  0.07396600  0.24704600  1
