# generated using pymatgen
data_Cu5(Ni5C12)2
_symmetry_space_group_name_H-M   'P 1'
_cell_length_a   5.98933238
_cell_length_b   5.98933238
_cell_length_c   14.66931046
_cell_angle_alpha   89.97782326
_cell_angle_beta   89.97782326
_cell_angle_gamma   59.96279559
_symmetry_Int_Tables_number   1
_chemical_formula_structural   Cu5(Ni5C12)2
_chemical_formula_sum   'Cu5 Ni10 C24'
_cell_volume   455.54803921
_cell_formula_units_Z   1
loop_
 _symmetry_equiv_pos_site_id
 _symmetry_equiv_pos_as_xyz
  1  'x, y, z'
loop_
 _atom_site_type_symbol
 _atom_site_label
 _atom_site_symmetry_multiplicity
 _atom_site_fract_x
 _atom_site_fract_y
 _atom_site_fract_z
 _atom_site_occupancy
  Ni  Ni0  1  0.17171700  0.17171700  0.20741500  1
  Ni  Ni1  1  0.65756100  0.17139100  0.20768200  1
  Ni  Ni2  1  0.83798700  0.32403700  0.54076800  1
  Ni  Ni3  1  0.32403700  0.83798700  0.54076800  1
  Ni  Ni4  1  0.17139100  0.65756100  0.20768200  1
  Ni  Ni5  1  0.83775500  0.83775500  0.54097300  1
  Ni  Ni6  1  0.66523000  0.66523000  0.71428600  1
  Ni  Ni7  1  0.00020000  0.00020000  0.37803300  1
  Ni  Ni8  1  0.99319900  0.50555400  0.87392600  1
  Ni  Ni9  1  0.50555400  0.99319900  0.87392600  1
  Cu  Cu10  1  0.33326700  0.33326700  0.04521100  1
  Cu  Cu11  1  0.66663500  0.66663500  0.33285800  1
  Cu  Cu12  1  0.00083600  0.00083600  0.00092800  1
  Cu  Cu13  1  0.50499500  0.50499500  0.87396000  1
  Cu  Cu14  1  0.33305800  0.33305800  0.66676600  1
  C  C15  1  0.31299000  0.84368000  0.28850900  1
  C  C16  1  0.84368000  0.31299000  0.28850900  1
  C  C17  1  0.47959900  0.04105400  0.12931600  1
  C  C18  1  0.04105400  0.47959900  0.12931600  1
  C  C19  1  0.14434800  0.14434800  0.46495400  1
  C  C20  1  0.33338000  0.33338000  0.27567800  1
  C  C21  1  0.47942900  0.47942900  0.12930200  1
  C  C22  1  0.66649600  0.66649600  0.46532600  1
  C  C23  1  0.50929900  0.50929900  0.62213800  1
  C  C24  1  0.00025900  0.00025900  0.13238100  1
  C  C25  1  0.84340800  0.84340800  0.28872400  1
  C  C26  1  0.97787200  0.51020700  0.62296100  1
  C  C27  1  0.51020700  0.97787200  0.62296100  1
  C  C28  1  0.81311100  0.37475500  0.79520000  1
  C  C29  1  0.71217300  0.14508200  0.46459500  1
  C  C30  1  0.37475500  0.81311100  0.79520000  1
  C  C31  1  0.14508200  0.71217300  0.46459500  1
  C  C32  1  0.81205600  0.81205600  0.79669500  1
  C  C33  1  0.66382600  0.66382600  0.94290500  1
  C  C34  1  0.00065400  0.00065400  0.60778900  1
  C  C35  1  0.17724600  0.17724600  0.95614700  1
  C  C36  1  0.33388600  0.33388600  0.79953100  1
  C  C37  1  0.64595100  0.17583900  0.95604200  1
  C  C38  1  0.17583900  0.64595100  0.95604200  1
