# generated using pymatgen
data_Cu2NiC7
_symmetry_space_group_name_H-M   'P 1'
_cell_length_a   12.39468300
_cell_length_b   5.55621600
_cell_length_c   7.44104809
_cell_angle_alpha   84.62119533
_cell_angle_beta   90.00000000
_cell_angle_gamma   90.00000000
_symmetry_Int_Tables_number   1
_chemical_formula_structural   Cu2NiC7
_chemical_formula_sum   'Cu8 Ni4 C28'
_cell_volume   510.19019620
_cell_formula_units_Z   4
loop_
 _symmetry_equiv_pos_site_id
 _symmetry_equiv_pos_as_xyz
  1  'x, y, z'
loop_
 _atom_site_type_symbol
 _atom_site_label
 _atom_site_symmetry_multiplicity
 _atom_site_fract_x
 _atom_site_fract_y
 _atom_site_fract_z
 _atom_site_occupancy
  C  C0  1  0.62349700  0.61143200  0.16780200  1
  C  C1  1  0.12349700  0.38856800  0.33219800  1
  C  C2  1  0.87650300  0.61143200  0.66780200  1
  C  C3  1  0.37650300  0.38856800  0.83219800  1
  Ni  Ni4  1  0.46913100  0.17375300  0.21967500  1
  Ni  Ni5  1  0.96913100  0.82624700  0.28032500  1
  Ni  Ni6  1  0.03086900  0.17375300  0.71967500  1
  Ni  Ni7  1  0.53086900  0.82624700  0.78032500  1
  Cu  Cu8  1  0.16521200  0.83741400  0.02241800  1
  Cu  Cu9  1  0.37746300  0.68019200  0.16119900  1
  Cu  Cu10  1  0.87746300  0.31980800  0.33880100  1
  Cu  Cu11  1  0.66521200  0.16258600  0.47758200  1
  Cu  Cu12  1  0.33478800  0.83741400  0.52241800  1
  Cu  Cu13  1  0.12253700  0.68019200  0.66119900  1
  Cu  Cu14  1  0.62253700  0.31980800  0.83880100  1
  Cu  Cu15  1  0.83478800  0.16258600  0.97758200  1
  C  C16  1  0.29432400  0.86935800  0.05691200  1
  C  C17  1  0.36446100  0.43715000  0.08898100  1
  C  C18  1  0.87550400  0.91863500  0.04475200  1
  C  C19  1  0.83351100  0.34921700  0.13408500  1
  C  C20  1  0.48756700  0.79848000  0.15342500  1
  C  C21  1  0.11614100  0.69850800  0.18728400  1
  C  C22  1  0.61614100  0.30149200  0.31271600  1
  C  C23  1  0.98756700  0.20152000  0.34657500  1
  C  C24  1  0.33351100  0.65078300  0.36591500  1
  C  C25  1  0.37550400  0.08136500  0.45524800  1
  C  C26  1  0.86446100  0.56285000  0.41101900  1
  C  C27  1  0.79432400  0.13064200  0.44308800  1
  C  C28  1  0.20567600  0.86935800  0.55691200  1
  C  C29  1  0.13553900  0.43715000  0.58898100  1
  C  C30  1  0.62449600  0.91863500  0.54475200  1
  C  C31  1  0.66648900  0.34921700  0.63408500  1
  C  C32  1  0.01243300  0.79848000  0.65342500  1
  C  C33  1  0.38385900  0.69850800  0.68728400  1
  C  C34  1  0.88385900  0.30149200  0.81271600  1
  C  C35  1  0.51243300  0.20152000  0.84657500  1
  C  C36  1  0.16648900  0.65078300  0.86591500  1
  C  C37  1  0.12449600  0.08136500  0.95524800  1
  C  C38  1  0.63553900  0.56285000  0.91101900  1
  C  C39  1  0.70567600  0.13064200  0.94308800  1
