# generated using pymatgen
data_Cu2Ni4C9
_symmetry_space_group_name_H-M   'P 1'
_cell_length_a   5.64958271
_cell_length_b   5.64958271
_cell_length_c   10.89588900
_cell_angle_alpha   90.00000000
_cell_angle_beta   90.00000000
_cell_angle_gamma   118.23956119
_symmetry_Int_Tables_number   1
_chemical_formula_structural   Cu2Ni4C9
_chemical_formula_sum   'Cu4 Ni8 C18'
_cell_volume   306.37968296
_cell_formula_units_Z   2
loop_
 _symmetry_equiv_pos_site_id
 _symmetry_equiv_pos_as_xyz
  1  'x, y, z'
loop_
 _atom_site_type_symbol
 _atom_site_label
 _atom_site_symmetry_multiplicity
 _atom_site_fract_x
 _atom_site_fract_y
 _atom_site_fract_z
 _atom_site_occupancy
  C  C0  1  0.68485100  0.68485100  0.27632700  1
  C  C1  1  0.56890900  0.56890900  0.62340500  1
  C  C2  1  0.43109100  0.43109100  0.12340500  1
  C  C3  1  0.31514900  0.31514900  0.77632700  1
  C  C4  1  0.33134500  0.66101100  0.90295000  1
  C  C5  1  0.33898900  0.66865500  0.40295000  1
  C  C6  1  0.00620400  0.30527100  0.26346300  1
  C  C7  1  0.00608200  0.38241600  0.63778100  1
  C  C8  1  0.99391800  0.61758400  0.13778100  1
  C  C9  1  0.69472900  0.99379600  0.76346300  1
  C  C10  1  0.99379600  0.69472900  0.76346300  1
  C  C11  1  0.61758400  0.99391800  0.13778100  1
  C  C12  1  0.66865500  0.33898900  0.40295000  1
  C  C13  1  0.66101100  0.33134500  0.90295000  1
  C  C14  1  0.38241600  0.00608200  0.63778100  1
  C  C15  1  0.30527100  0.00620400  0.26346300  1
  C  C16  1  0.95657500  0.95657500  0.51051600  1
  C  C17  1  0.04342500  0.04342500  0.01051600  1
  Ni  Ni18  1  0.65176400  0.65176400  0.45150300  1
  Ni  Ni19  1  0.34823600  0.34823600  0.95150300  1
  Ni  Ni20  1  0.33226900  0.67242600  0.71765500  1
  Ni  Ni21  1  0.02599500  0.02599500  0.68433400  1
  Ni  Ni22  1  0.97400500  0.97400500  0.18433400  1
  Ni  Ni23  1  0.32757400  0.66773100  0.21765500  1
  Ni  Ni24  1  0.66773100  0.32757400  0.21765500  1
  Ni  Ni25  1  0.67242600  0.33226900  0.71765500  1
  Cu  Cu26  1  0.01094100  0.34238100  0.44796000  1
  Cu  Cu27  1  0.65761900  0.98905900  0.94796000  1
  Cu  Cu28  1  0.98905900  0.65761900  0.94796000  1
  Cu  Cu29  1  0.34238100  0.01094100  0.44796000  1
