# generated using pymatgen
data_Cu11(NiC4)2
_symmetry_space_group_name_H-M   'P 1'
_cell_length_a   8.00733093
_cell_length_b   8.00733093
_cell_length_c   9.27685703
_cell_angle_alpha   82.40058656
_cell_angle_beta   82.40058656
_cell_angle_gamma   28.27434338
_symmetry_Int_Tables_number   1
_chemical_formula_structural   Cu11(NiC4)2
_chemical_formula_sum   'Cu11 Ni2 C8'
_cell_volume   279.12423482
_cell_formula_units_Z   1
loop_
 _symmetry_equiv_pos_site_id
 _symmetry_equiv_pos_as_xyz
  1  'x, y, z'
loop_
 _atom_site_type_symbol
 _atom_site_label
 _atom_site_symmetry_multiplicity
 _atom_site_fract_x
 _atom_site_fract_y
 _atom_site_fract_z
 _atom_site_occupancy
  C  C0  1  0.54801600  0.54801600  0.22510000  1
  C  C1  1  0.44839900  0.44839900  0.76403900  1
  C  C2  1  0.11408800  0.11408800  0.90580900  1
  C  C3  1  0.17051200  0.17051200  0.56077200  1
  C  C4  1  0.23904100  0.23904100  0.22847900  1
  C  C5  1  0.75037100  0.75037100  0.77990500  1
  C  C6  1  0.83149200  0.83149200  0.44034700  1
  C  C7  1  0.88361200  0.88361200  0.08783100  1
  Ni  Ni8  1  0.63958300  0.63958300  0.88920500  1
  Ni  Ni9  1  0.99752800  0.99752800  0.99965300  1
  Cu  Cu10  1  0.07420800  0.07420800  0.69681000  1
  Cu  Cu11  1  0.13163800  0.13163800  0.38303600  1
  Cu  Cu12  1  0.16741600  0.16741600  0.09204800  1
  Cu  Cu13  1  0.70212300  0.70212300  0.57147100  1
  Cu  Cu14  1  0.75605400  0.75605400  0.24606900  1
  Cu  Cu15  1  0.24321100  0.24321100  0.75019300  1
  Cu  Cu16  1  0.29786200  0.29786200  0.42938100  1
  Cu  Cu17  1  0.35763000  0.35763000  0.11667100  1
  Cu  Cu18  1  0.83172300  0.83172300  0.91104600  1
  Cu  Cu19  1  0.87478100  0.87478100  0.60865900  1
  Cu  Cu20  1  0.92494000  0.92494000  0.29583900  1
