# generated using pymatgen
data_CuNi3C32
_symmetry_space_group_name_H-M   'P 1'
_cell_length_a   9.16174287
_cell_length_b   9.16174287
_cell_length_c   9.16174292
_cell_angle_alpha   56.11997847
_cell_angle_beta   56.11997847
_cell_angle_gamma   56.11997851
_symmetry_Int_Tables_number   1
_chemical_formula_structural   CuNi3C32
_chemical_formula_sum   'Cu1 Ni3 C32'
_cell_volume   494.92246990
_cell_formula_units_Z   1
loop_
 _symmetry_equiv_pos_site_id
 _symmetry_equiv_pos_as_xyz
  1  'x, y, z'
loop_
 _atom_site_type_symbol
 _atom_site_label
 _atom_site_symmetry_multiplicity
 _atom_site_fract_x
 _atom_site_fract_y
 _atom_site_fract_z
 _atom_site_occupancy
  Ni  Ni0  1  0.64683000  0.64683000  0.64683000  1
  Ni  Ni1  1  0.85481700  0.85481700  0.85481700  1
  Ni  Ni2  1  0.34471300  0.34471300  0.34471300  1
  Cu  Cu3  1  0.14990300  0.14990300  0.14990300  1
  C  C4  1  0.01451800  0.01451800  0.01451800  1
  C  C5  1  0.48633900  0.48633900  0.48633900  1
  C  C6  1  0.95687500  0.25050800  0.53944800  1
  C  C7  1  0.53944800  0.95687500  0.25050800  1
  C  C8  1  0.25050800  0.53944800  0.95687500  1
  C  C9  1  0.74384600  0.46994300  0.03604600  1
  C  C10  1  0.46994300  0.03604600  0.74384600  1
  C  C11  1  0.03604600  0.74384600  0.46994300  1
  C  C12  1  0.50551700  0.13386100  0.27265900  1
  C  C13  1  0.27265900  0.50551700  0.13386100  1
  C  C14  1  0.13386100  0.27265900  0.50551700  1
  C  C15  1  0.94147300  0.06694300  0.71304900  1
  C  C16  1  0.97018100  0.24875100  0.36899700  1
  C  C17  1  0.78043400  0.41676500  0.59411200  1
  C  C18  1  0.71304900  0.94147300  0.06694300  1
  C  C19  1  0.59411200  0.78043400  0.41676500  1
  C  C20  1  0.78011300  0.63141800  0.00584500  1
  C  C21  1  0.41676500  0.59411200  0.78043400  1
  C  C22  1  0.91696500  0.28439900  0.05498900  1
  C  C23  1  0.63141800  0.00584500  0.78011300  1
  C  C24  1  0.36899700  0.97018100  0.24875100  1
  C  C25  1  0.06694300  0.71304900  0.94147300  1
  C  C26  1  0.56899200  0.44265000  0.22331000  1
  C  C27  1  0.24875100  0.36899700  0.97018100  1
  C  C28  1  0.44265000  0.22331000  0.56899200  1
  C  C29  1  0.28439900  0.05498900  0.91696500  1
  C  C30  1  0.22331000  0.56899200  0.44265000  1
  C  C31  1  0.00584500  0.78011300  0.63141800  1
  C  C32  1  0.05498900  0.91696500  0.28439900  1
  C  C33  1  0.87851700  0.69708800  0.50919600  1
  C  C34  1  0.69708800  0.50919600  0.87851700  1
  C  C35  1  0.50919600  0.87851700  0.69708800  1
