# generated using pymatgen
data_Cu3(Ni3C4)4
_symmetry_space_group_name_H-M   'P 1'
_cell_length_a   9.94094100
_cell_length_b   11.95611949
_cell_length_c   7.18383012
_cell_angle_alpha   97.27276355
_cell_angle_beta   110.13724706
_cell_angle_gamma   105.89065669
_symmetry_Int_Tables_number   1
_chemical_formula_structural   Cu3(Ni3C4)4
_chemical_formula_sum   'Cu6 Ni24 C32'
_cell_volume   747.59003483
_cell_formula_units_Z   2
loop_
 _symmetry_equiv_pos_site_id
 _symmetry_equiv_pos_as_xyz
  1  'x, y, z'
loop_
 _atom_site_type_symbol
 _atom_site_label
 _atom_site_symmetry_multiplicity
 _atom_site_fract_x
 _atom_site_fract_y
 _atom_site_fract_z
 _atom_site_occupancy
  C  C0  1  0.78585300  0.88510400  0.62400800  1
  C  C1  1  0.21414700  0.11489600  0.37599200  1
  Ni  Ni2  1  0.99369600  0.72081300  0.60823800  1
  Ni  Ni3  1  0.00630400  0.27918700  0.39176200  1
  Ni  Ni4  1  0.98242200  0.76303000  0.45947800  1
  Ni  Ni5  1  0.01757800  0.23697000  0.54052200  1
  Ni  Ni6  1  0.52553900  0.82880800  0.21803400  1
  Ni  Ni7  1  0.47446100  0.17119200  0.78196600  1
  Ni  Ni8  1  0.55408800  0.65889000  0.55837200  1
  Ni  Ni9  1  0.44591200  0.34111000  0.44162800  1
  Ni  Ni10  1  0.77346300  0.72334900  0.89211100  1
  Ni  Ni11  1  0.22653700  0.27665100  0.10788900  1
  Ni  Ni12  1  0.83718400  0.56558000  0.70938500  1
  Ni  Ni13  1  0.16281600  0.43442000  0.29061500  1
  Ni  Ni14  1  0.93252300  0.20605300  0.15116100  1
  Ni  Ni15  1  0.06747700  0.79394700  0.84883900  1
  Ni  Ni16  1  0.57392700  0.44963200  0.34981900  1
  Ni  Ni17  1  0.42607300  0.55036800  0.65018100  1
  Ni  Ni18  1  0.90379000  0.44972700  0.15376800  1
  Ni  Ni19  1  0.09621000  0.55027300  0.84623200  1
  Ni  Ni20  1  0.80430800  0.22484800  0.16901900  1
  Ni  Ni21  1  0.19569200  0.77515200  0.83098100  1
  Ni  Ni22  1  0.34894000  0.41117900  0.14882900  1
  Ni  Ni23  1  0.65106000  0.58882100  0.85117100  1
  Ni  Ni24  1  0.50833200  0.29566900  0.17462500  1
  Ni  Ni25  1  0.49166800  0.70433100  0.82537500  1
  Cu  Cu26  1  0.66660400  0.15394600  0.80342200  1
  Cu  Cu27  1  0.33339600  0.84605400  0.19657800  1
  Cu  Cu28  1  0.00814100  0.27275300  0.82206000  1
  Cu  Cu29  1  0.99185900  0.72724700  0.17794000  1
  Cu  Cu30  1  0.69759500  0.96275800  0.27914800  1
  Cu  Cu31  1  0.30240500  0.03724200  0.72085200  1
  C  C32  1  0.94073800  0.75678000  0.53092700  1
  C  C33  1  0.05926200  0.24322000  0.46907300  1
  C  C34  1  0.71197700  0.69945700  0.93825000  1
  C  C35  1  0.28802300  0.30054300  0.06175000  1
  C  C36  1  0.86537200  0.71378200  0.76217000  1
  C  C37  1  0.13462800  0.28621800  0.23783000  1
  C  C38  1  0.61891100  0.65948900  0.51637800  1
  C  C39  1  0.38108900  0.34051100  0.48362200  1
  C  C40  1  0.88931200  0.30046700  0.20197800  1
  C  C41  1  0.11068800  0.69953300  0.79802200  1
  C  C42  1  0.54651500  0.30249500  0.27687600  1
  C  C43  1  0.45348500  0.69750500  0.72312400  1
  C  C44  1  0.64305900  0.13212500  0.66573300  1
  C  C45  1  0.35694100  0.86787500  0.33426700  1
  C  C46  1  0.75859100  0.09813500  0.86320300  1
  C  C47  1  0.24140900  0.90186500  0.13679700  1
  C  C48  1  0.60238600  0.22375600  0.88063700  1
  C  C49  1  0.39761400  0.77624400  0.11936300  1
  C  C50  1  0.94503600  0.24651300  0.68813900  1
  C  C51  1  0.05496400  0.75348700  0.31186100  1
  C  C52  1  0.99447000  0.14404100  0.87538300  1
  C  C53  1  0.00553000  0.85595900  0.12461700  1
  C  C54  1  0.09045900  0.44393600  0.90728000  1
  C  C55  1  0.90954100  0.55606400  0.09272000  1
  C  C56  1  0.79766600  0.00027200  0.37982000  1
  C  C57  1  0.20233400  0.99972800  0.62018000  1
  C  C58  1  0.60927000  0.84519800  0.29604200  1
  C  C59  1  0.39073000  0.15480200  0.70395800  1
  C  C60  1  0.67721700  0.02158900  0.17603900  1
  C  C61  1  0.32278300  0.97841100  0.82396100  1
