# generated using pymatgen
data_Cu2Ni2C7
_symmetry_space_group_name_H-M   'P 1'
_cell_length_a   8.11829500
_cell_length_b   9.88007500
_cell_length_c   10.36120500
_cell_angle_alpha   90.00000000
_cell_angle_beta   90.00000000
_cell_angle_gamma   90.00000000
_symmetry_Int_Tables_number   1
_chemical_formula_structural   Cu2Ni2C7
_chemical_formula_sum   'Cu8 Ni8 C28'
_cell_volume   831.06565785
_cell_formula_units_Z   4
loop_
 _symmetry_equiv_pos_site_id
 _symmetry_equiv_pos_as_xyz
  1  'x, y, z'
loop_
 _atom_site_type_symbol
 _atom_site_label
 _atom_site_symmetry_multiplicity
 _atom_site_fract_x
 _atom_site_fract_y
 _atom_site_fract_z
 _atom_site_occupancy
  C  C0  1  0.49891600  0.76653700  0.66587200  1
  C  C1  1  0.00108400  0.73346300  0.16587200  1
  C  C2  1  0.99891600  0.23346300  0.33412800  1
  C  C3  1  0.50108400  0.26653700  0.83412800  1
  C  C4  1  0.50108400  0.23346300  0.33412800  1
  C  C5  1  0.99891600  0.26653700  0.83412800  1
  C  C6  1  0.00108400  0.76653700  0.66587200  1
  C  C7  1  0.49891600  0.73346300  0.16587200  1
  C  C8  1  0.25000000  0.49069400  0.99479800  1
  C  C9  1  0.25000000  0.00930600  0.49479800  1
  C  C10  1  0.75000000  0.50930600  0.00520200  1
  C  C11  1  0.75000000  0.99069400  0.50520200  1
  C  C12  1  0.25000000  0.33857300  0.04499600  1
  C  C13  1  0.25000000  0.16142700  0.54499600  1
  C  C14  1  0.75000000  0.66142700  0.95500400  1
  C  C15  1  0.75000000  0.83857300  0.45500400  1
  Ni  Ni16  1  0.25000000  0.61308900  0.43298600  1
  Ni  Ni17  1  0.25000000  0.88691100  0.93298600  1
  Ni  Ni18  1  0.75000000  0.38691100  0.56701400  1
  Ni  Ni19  1  0.75000000  0.11308900  0.06701400  1
  Ni  Ni20  1  0.25000000  0.44379500  0.58994500  1
  Ni  Ni21  1  0.25000000  0.05620500  0.08994500  1
  Ni  Ni22  1  0.75000000  0.55620500  0.41005500  1
  Ni  Ni23  1  0.75000000  0.94379500  0.91005500  1
  Cu  Cu24  1  0.25000000  0.50290900  0.30417100  1
  Cu  Cu25  1  0.25000000  0.99709100  0.80417100  1
  Cu  Cu26  1  0.75000000  0.49709100  0.69582900  1
  Cu  Cu27  1  0.75000000  0.00290900  0.19582900  1
  Cu  Cu28  1  0.25000000  0.78545700  0.40667700  1
  Cu  Cu29  1  0.25000000  0.71454300  0.90667700  1
  Cu  Cu30  1  0.75000000  0.21454300  0.59332300  1
  Cu  Cu31  1  0.75000000  0.28545700  0.09332300  1
  C  C32  1  0.25000000  0.57075200  0.55814800  1
  C  C33  1  0.25000000  0.92924800  0.05814800  1
  C  C34  1  0.75000000  0.42924800  0.44185200  1
  C  C35  1  0.75000000  0.07075200  0.94185200  1
  C  C36  1  0.25000000  0.33151600  0.63139300  1
  C  C37  1  0.25000000  0.16848400  0.13139300  1
  C  C38  1  0.75000000  0.66848400  0.36860700  1
  C  C39  1  0.75000000  0.83151600  0.86860700  1
  C  C40  1  0.25000000  0.39587100  0.96674200  1
  C  C41  1  0.25000000  0.10412900  0.46674200  1
  C  C42  1  0.75000000  0.60412900  0.03325800  1
  C  C43  1  0.75000000  0.89587100  0.53325800  1
