# generated using pymatgen
data_Cu9Ni10C3
_symmetry_space_group_name_H-M   'P 1'
_cell_length_a   18.95361780
_cell_length_b   18.95361780
_cell_length_c   18.95361774
_cell_angle_alpha   28.85071922
_cell_angle_beta   28.85071922
_cell_angle_gamma   28.85071866
_symmetry_Int_Tables_number   1
_chemical_formula_structural   Cu9Ni10C3
_chemical_formula_sum   'Cu36 Ni40 C12'
_cell_volume   1401.92181697
_cell_formula_units_Z   4
loop_
 _symmetry_equiv_pos_site_id
 _symmetry_equiv_pos_as_xyz
  1  'x, y, z'
loop_
 _atom_site_type_symbol
 _atom_site_label
 _atom_site_symmetry_multiplicity
 _atom_site_fract_x
 _atom_site_fract_y
 _atom_site_fract_z
 _atom_site_occupancy
  C  C0  1  0.75574000  0.54549600  0.83691800  1
  C  C1  1  0.66308200  0.95450400  0.74426000  1
  C  C2  1  0.04549600  0.25574000  0.33691800  1
  C  C3  1  0.24426000  0.45450400  0.16308200  1
  C  C4  1  0.16308200  0.24426000  0.45450400  1
  C  C5  1  0.95450400  0.74426000  0.66308200  1
  C  C6  1  0.33691800  0.04549600  0.25574000  1
  C  C7  1  0.25574000  0.33691800  0.04549600  1
  C  C8  1  0.54549600  0.83691800  0.75574000  1
  C  C9  1  0.74426000  0.66308200  0.95450400  1
  C  C10  1  0.45450400  0.16308200  0.24426000  1
  C  C11  1  0.83691800  0.75574000  0.54549600  1
  Ni  Ni12  1  0.66907200  0.12106300  0.54829200  1
  Ni  Ni13  1  0.95170800  0.37893700  0.83092800  1
  Ni  Ni14  1  0.04829200  0.62106300  0.16907200  1
  Ni  Ni15  1  0.45021800  0.01958900  0.86518900  1
  Ni  Ni16  1  0.01958900  0.86518900  0.45021800  1
  Ni  Ni17  1  0.47790900  0.83393500  0.72846900  1
  Ni  Ni18  1  0.04978200  0.63481100  0.48041100  1
  Ni  Ni19  1  0.22846900  0.33393500  0.97790900  1
  Ni  Ni20  1  0.16606500  0.27153100  0.52209100  1
  Ni  Ni21  1  0.48041100  0.04978200  0.63481100  1
  Ni  Ni22  1  0.97790900  0.22846900  0.33393500  1
  Ni  Ni23  1  0.37893700  0.83092800  0.95170800  1
  Ni  Ni24  1  0.66606500  0.02209100  0.77153100  1
  Ni  Ni25  1  0.77153100  0.66606500  0.02209100  1
  Ni  Ni26  1  0.62106300  0.16907200  0.04829200  1
  Ni  Ni27  1  0.83092800  0.95170800  0.37893700  1
  Ni  Ni28  1  0.52209100  0.16606500  0.27153100  1
  Ni  Ni29  1  0.26325300  0.26325300  0.26325300  1
  Ni  Ni30  1  0.36518900  0.51958900  0.95021800  1
  Ni  Ni31  1  0.87893700  0.45170800  0.33092800  1
  Ni  Ni32  1  0.76325300  0.76325300  0.76325300  1
  Ni  Ni33  1  0.86518900  0.45021800  0.01958900  1
  Ni  Ni34  1  0.27153100  0.52209100  0.16606500  1
  Ni  Ni35  1  0.72846900  0.47790900  0.83393500  1
  Ni  Ni36  1  0.51958900  0.95021800  0.36518900  1
  Ni  Ni37  1  0.73674700  0.73674700  0.73674700  1
  Ni  Ni38  1  0.23674700  0.23674700  0.23674700  1
  Ni  Ni39  1  0.98041100  0.13481100  0.54978200  1
  Ni  Ni40  1  0.45170800  0.33092800  0.87893700  1
  Ni  Ni41  1  0.63481100  0.48041100  0.04978200  1
  Ni  Ni42  1  0.95021800  0.36518900  0.51958900  1
  Ni  Ni43  1  0.54978200  0.98041100  0.13481100  1
  Ni  Ni44  1  0.02209100  0.77153100  0.66606500  1
  Ni  Ni45  1  0.54829200  0.66907200  0.12106300  1
  Ni  Ni46  1  0.12106300  0.54829200  0.66907200  1
  Ni  Ni47  1  0.13481100  0.54978200  0.98041100  1
  Ni  Ni48  1  0.33092800  0.87893700  0.45170800  1
  Ni  Ni49  1  0.83393500  0.72846900  0.47790900  1
  Ni  Ni50  1  0.33393500  0.97790900  0.22846900  1
  Ni  Ni51  1  0.16907200  0.04829200  0.62106300  1
  Cu  Cu52  1  0.92695700  0.21606900  0.33537700  1
  Cu  Cu53  1  0.94240300  0.31045800  0.06399600  1
  Cu  Cu54  1  0.56399600  0.81045800  0.44240300  1
  Cu  Cu55  1  0.55759700  0.43600400  0.18954200  1
  Cu  Cu56  1  0.92315000  0.73649600  0.16591700  1
  Cu  Cu57  1  0.66462300  0.07304300  0.78393100  1
  Cu  Cu58  1  0.26350400  0.83408300  0.07685000  1
  Cu  Cu59  1  0.68954200  0.93600400  0.05759700  1
  Cu  Cu60  1  0.33537700  0.92695700  0.21606900  1
  Cu  Cu61  1  0.73649600  0.16591700  0.92315000  1
  Cu  Cu62  1  0.42695700  0.83537700  0.71606900  1
  Cu  Cu63  1  0.21606900  0.33537700  0.92695700  1
  Cu  Cu64  1  0.43600400  0.18954200  0.55759700  1
  Cu  Cu65  1  0.83408300  0.07685000  0.26350400  1
  Cu  Cu66  1  0.18954200  0.55759700  0.43600400  1
  Cu  Cu67  1  0.07685000  0.26350400  0.83408300  1
  Cu  Cu68  1  0.16591700  0.92315000  0.73649600  1
  Cu  Cu69  1  0.93600400  0.05759700  0.68954200  1
  Cu  Cu70  1  0.76350400  0.57685000  0.33408300  1
  Cu  Cu71  1  0.57304300  0.16462300  0.28393100  1
  Cu  Cu72  1  0.78393100  0.66462300  0.07304300  1
  Cu  Cu73  1  0.44240300  0.56399600  0.81045800  1
  Cu  Cu74  1  0.71606900  0.42695700  0.83537700  1
  Cu  Cu75  1  0.66591700  0.23649600  0.42315000  1
  Cu  Cu76  1  0.31045800  0.06399600  0.94240300  1
  Cu  Cu77  1  0.07304300  0.78393100  0.66462300  1
  Cu  Cu78  1  0.05759700  0.68954200  0.93600400  1
  Cu  Cu79  1  0.28393100  0.57304300  0.16462300  1
  Cu  Cu80  1  0.16462300  0.28393100  0.57304300  1
  Cu  Cu81  1  0.23649600  0.42315000  0.66591700  1
  Cu  Cu82  1  0.57685000  0.33408300  0.76350400  1
  Cu  Cu83  1  0.81045800  0.44240300  0.56399600  1
  Cu  Cu84  1  0.42315000  0.66591700  0.23649600  1
  Cu  Cu85  1  0.83537700  0.71606900  0.42695700  1
  Cu  Cu86  1  0.06399600  0.94240300  0.31045800  1
  Cu  Cu87  1  0.33408300  0.76350400  0.57685000  1
