# generated using pymatgen
data_CuNi3C10
_symmetry_space_group_name_H-M   'P 1'
_cell_length_a   8.41534700
_cell_length_b   8.41534700
_cell_length_c   8.13467300
_cell_angle_alpha   90.00000000
_cell_angle_beta   90.00000000
_cell_angle_gamma   90.00000000
_symmetry_Int_Tables_number   1
_chemical_formula_structural   CuNi3C10
_chemical_formula_sum   'Cu4 Ni12 C40'
_cell_volume   576.08180233
_cell_formula_units_Z   4
loop_
 _symmetry_equiv_pos_site_id
 _symmetry_equiv_pos_as_xyz
  1  'x, y, z'
loop_
 _atom_site_type_symbol
 _atom_site_label
 _atom_site_symmetry_multiplicity
 _atom_site_fract_x
 _atom_site_fract_y
 _atom_site_fract_z
 _atom_site_occupancy
  C  C0  1  0.49987100  0.74890900  0.87257500  1
  C  C1  1  0.74890900  0.49987100  0.12742500  1
  C  C2  1  0.25109100  0.50012900  0.62742500  1
  C  C3  1  0.50012900  0.25109100  0.37257500  1
  C  C4  1  0.00012900  0.24890900  0.87742500  1
  C  C5  1  0.75109100  0.99987100  0.62257500  1
  C  C6  1  0.24890900  0.00012900  0.12257500  1
  C  C7  1  0.99987100  0.75109100  0.37742500  1
  Ni  Ni8  1  0.63047400  0.63047400  0.50000000  1
  Ni  Ni9  1  0.87959200  0.62505000  0.74026800  1
  Ni  Ni10  1  0.12505000  0.62040800  0.99026800  1
  Ni  Ni11  1  0.87495000  0.37959200  0.49026800  1
  Ni  Ni12  1  0.12040800  0.37495000  0.24026800  1
  Ni  Ni13  1  0.36952600  0.36952600  0.00000000  1
  Ni  Ni14  1  0.86952600  0.13047400  0.25000000  1
  Ni  Ni15  1  0.62040800  0.12505000  0.00973200  1
  Ni  Ni16  1  0.37495000  0.12040800  0.75973200  1
  Ni  Ni17  1  0.62505000  0.87959200  0.25973200  1
  Ni  Ni18  1  0.37959200  0.87495000  0.50973200  1
  Ni  Ni19  1  0.13047400  0.86952600  0.75000000  1
  Cu  Cu20  1  0.37311900  0.62688100  0.25000000  1
  Cu  Cu21  1  0.62688100  0.37311900  0.75000000  1
  Cu  Cu22  1  0.12688100  0.12688100  0.50000000  1
  Cu  Cu23  1  0.87311900  0.87311900  0.00000000  1
  C  C24  1  0.62178900  0.64498100  0.26995000  1
  C  C25  1  0.40431300  0.63278000  0.50232600  1
  C  C26  1  0.11542700  0.64223500  0.76009500  1
  C  C27  1  0.64498100  0.62178900  0.73005000  1
  C  C28  1  0.88177300  0.62794300  0.97265600  1
  C  C29  1  0.85776500  0.61542700  0.51009500  1
  C  C30  1  0.12794300  0.61822700  0.22265600  1
  C  C31  1  0.36722000  0.59568700  0.99767400  1
  C  C32  1  0.63278000  0.40431300  0.49767400  1
  C  C33  1  0.87205700  0.38177300  0.72265600  1
  C  C34  1  0.14223500  0.38457300  0.01009500  1
  C  C35  1  0.11822700  0.37205700  0.47265600  1
  C  C36  1  0.35501900  0.37821100  0.23005000  1
  C  C37  1  0.88457300  0.35776500  0.26009500  1
  C  C38  1  0.59568700  0.36722000  0.00232600  1
  C  C39  1  0.37821100  0.35501900  0.76995000  1
  C  C40  1  0.87821100  0.14498100  0.48005000  1
  C  C41  1  0.09568700  0.13278000  0.24767400  1
  C  C42  1  0.38457300  0.14223500  0.98990500  1
  C  C43  1  0.85501900  0.12178900  0.01995000  1
  C  C44  1  0.61822700  0.12794300  0.77734400  1
  C  C45  1  0.64223500  0.11542700  0.23990500  1
  C  C46  1  0.37205700  0.11822700  0.52734400  1
  C  C47  1  0.13278000  0.09568700  0.75232600  1
  C  C48  1  0.86722000  0.90431300  0.25232600  1
  C  C49  1  0.62794300  0.88177300  0.02734400  1
  C  C50  1  0.35776500  0.88457300  0.73990500  1
  C  C51  1  0.38177300  0.87205700  0.27734400  1
  C  C52  1  0.14498100  0.87821100  0.51995000  1
  C  C53  1  0.61542700  0.85776500  0.48990500  1
  C  C54  1  0.90431300  0.86722000  0.74767400  1
  C  C55  1  0.12178900  0.85501900  0.98005000  1
