# generated using pymatgen
data_CuNiC
_symmetry_space_group_name_H-M   'P 1'
_cell_length_a   3.10488400
_cell_length_b   14.21941300
_cell_length_c   14.27360825
_cell_angle_alpha   89.75806509
_cell_angle_beta   90.00000000
_cell_angle_gamma   90.00000000
_symmetry_Int_Tables_number   1
_chemical_formula_structural   CuNiC
_chemical_formula_sum   'Cu18 Ni18 C18'
_cell_volume   630.16887517
_cell_formula_units_Z   18
loop_
 _symmetry_equiv_pos_site_id
 _symmetry_equiv_pos_as_xyz
  1  'x, y, z'
loop_
 _atom_site_type_symbol
 _atom_site_label
 _atom_site_symmetry_multiplicity
 _atom_site_fract_x
 _atom_site_fract_y
 _atom_site_fract_z
 _atom_site_occupancy
  C  C0  1  0.00000000  0.98807800  0.99602000  1
  C  C1  1  0.00000000  0.98755500  0.33350300  1
  C  C2  1  0.00000000  0.99916300  0.66458700  1
  C  C3  1  0.50000000  0.84887300  0.16570700  1
  C  C4  1  0.50000000  0.85011800  0.50220200  1
  C  C5  1  0.50000000  0.85160500  0.82633100  1
  C  C6  1  0.00000000  0.65878400  0.99191300  1
  C  C7  1  0.00000000  0.65631400  0.33346900  1
  C  C8  1  0.00000000  0.65520500  0.66394300  1
  C  C9  1  0.50000000  0.51206500  0.49898200  1
  C  C10  1  0.50000000  0.49929200  0.18630600  1
  C  C11  1  0.50000000  0.51204600  0.82947400  1
  C  C12  1  0.00000000  0.32786900  0.00417100  1
  C  C13  1  0.00000000  0.32714300  0.32395900  1
  C  C14  1  0.00000000  0.32068000  0.66518800  1
  C  C15  1  0.50000000  0.17805800  0.16507300  1
  C  C16  1  0.50000000  0.16356600  0.51635600  1
  C  C17  1  0.50000000  0.16411600  0.81305500  1
  Ni  Ni18  1  0.50000000  0.93727600  0.26810900  1
  Ni  Ni19  1  0.50000000  0.93409700  0.60381500  1
  Ni  Ni20  1  0.50000000  0.93683100  0.93457100  1
  Ni  Ni21  1  0.00000000  0.89682400  0.10005000  1
  Ni  Ni22  1  0.00000000  0.89757100  0.43472900  1
  Ni  Ni23  1  0.00000000  0.89560500  0.76505100  1
  Ni  Ni24  1  0.50000000  0.60700400  0.26650100  1
  Ni  Ni25  1  0.50000000  0.60068000  0.60292000  1
  Ni  Ni26  1  0.50000000  0.59759400  0.93904700  1
  Ni  Ni27  1  0.00000000  0.56295000  0.43369200  1
  Ni  Ni28  1  0.00000000  0.56524300  0.77052900  1
  Ni  Ni29  1  0.00000000  0.43326500  0.23306400  1
  Ni  Ni30  1  0.50000000  0.26436600  0.27023500  1
  Ni  Ni31  1  0.50000000  0.27203900  0.60139100  1
  Ni  Ni32  1  0.00000000  0.23340800  0.09994900  1
  Ni  Ni33  1  0.00000000  0.23550700  0.77240200  1
  Ni  Ni34  1  0.00000000  0.10057500  0.56274100  1
  Ni  Ni35  1  0.50000000  0.06163400  0.73130700  1
  Cu  Cu36  1  0.00000000  0.76857300  0.23223700  1
  Cu  Cu37  1  0.00000000  0.76546700  0.56621200  1
  Cu  Cu38  1  0.00000000  0.76636700  0.90067100  1
  Cu  Cu39  1  0.50000000  0.72718100  0.06606000  1
  Cu  Cu40  1  0.50000000  0.72995100  0.73345600  1
  Cu  Cu41  1  0.50000000  0.73160500  0.39908800  1
  Cu  Cu42  1  0.00000000  0.56410000  0.10280500  1
  Cu  Cu43  1  0.00000000  0.43491400  0.56665500  1
  Cu  Cu44  1  0.00000000  0.42932700  0.90036000  1
  Cu  Cu45  1  0.50000000  0.40379200  0.06160700  1
  Cu  Cu46  1  0.50000000  0.39498400  0.40209300  1
  Cu  Cu47  1  0.50000000  0.40109800  0.73494300  1
  Cu  Cu48  1  0.50000000  0.26970700  0.93491600  1
  Cu  Cu49  1  0.00000000  0.23439200  0.43538500  1
  Cu  Cu50  1  0.00000000  0.10165800  0.22885600  1
  Cu  Cu51  1  0.00000000  0.10688100  0.90396400  1
  Cu  Cu52  1  0.50000000  0.06653500  0.06725300  1
  Cu  Cu53  1  0.50000000  0.07047500  0.39309500  1
