# generated using pymatgen
data_Cu3(Ni6C5)4
_symmetry_space_group_name_H-M   'P 1'
_cell_length_a   13.60388748
_cell_length_b   13.60388748
_cell_length_c   6.51217200
_cell_angle_alpha   90.00000000
_cell_angle_beta   90.00000000
_cell_angle_gamma   119.99999748
_symmetry_Int_Tables_number   1
_chemical_formula_structural   Cu3(Ni6C5)4
_chemical_formula_sum   'Cu6 Ni48 C40'
_cell_volume   1043.71654463
_cell_formula_units_Z   2
loop_
 _symmetry_equiv_pos_site_id
 _symmetry_equiv_pos_as_xyz
  1  'x, y, z'
loop_
 _atom_site_type_symbol
 _atom_site_label
 _atom_site_symmetry_multiplicity
 _atom_site_fract_x
 _atom_site_fract_y
 _atom_site_fract_z
 _atom_site_occupancy
  C  C0  1  0.13082900  0.70739500  0.99792300  1
  C  C1  1  0.12685600  0.70995700  0.52429300  1
  C  C2  1  0.42343400  0.13082900  0.49792300  1
  C  C3  1  0.41689800  0.12685600  0.02429300  1
  C  C4  1  0.70995700  0.58310200  0.02429300  1
  C  C5  1  0.70739500  0.57656600  0.49792300  1
  C  C6  1  0.00000000  0.00000000  0.99845700  1
  C  C7  1  0.00000000  0.00000000  0.49845700  1
  C  C8  1  0.29260500  0.42343400  0.99792300  1
  C  C9  1  0.29004300  0.41689800  0.52429300  1
  C  C10  1  0.58310200  0.87314400  0.52429300  1
  C  C11  1  0.57656600  0.86917100  0.99792300  1
  C  C12  1  0.87314400  0.29004300  0.02429300  1
  C  C13  1  0.86917100  0.29260500  0.49792300  1
  C  C14  1  0.25580400  0.18987000  0.25559900  1
  C  C15  1  0.18987000  0.93406600  0.75559900  1
  C  C16  1  0.50041300  0.39430600  0.75578000  1
  C  C17  1  0.10610700  0.50041300  0.25578000  1
  C  C18  1  0.06593400  0.25580400  0.75559900  1
  C  C19  1  0.39430600  0.89389300  0.25578000  1
  C  C20  1  0.33333300  0.66666700  0.49605100  1
  C  C21  1  0.66666700  0.33333300  0.99605100  1
  C  C22  1  0.60569400  0.10610700  0.75578000  1
  C  C23  1  0.93406600  0.74419600  0.25559900  1
  C  C24  1  0.89389300  0.49958700  0.75578000  1
  C  C25  1  0.49958700  0.60569400  0.25578000  1
  C  C26  1  0.81013000  0.06593400  0.25559900  1
  C  C27  1  0.74419600  0.81013000  0.75559900  1
  C  C28  1  0.25062400  0.18570400  0.75491800  1
  C  C29  1  0.18570400  0.93508000  0.25491800  1
  C  C30  1  0.48848400  0.36931300  0.26127400  1
  C  C31  1  0.11917100  0.48848400  0.76127400  1
  C  C32  1  0.36931300  0.88082900  0.76127400  1
  C  C33  1  0.06492000  0.25062400  0.25491800  1
  C  C34  1  0.93508000  0.74937600  0.75491800  1
  C  C35  1  0.63068700  0.11917100  0.26127400  1
  C  C36  1  0.88082900  0.51151600  0.26127400  1
  C  C37  1  0.51151600  0.63068700  0.76127400  1
  C  C38  1  0.81429600  0.06492000  0.75491800  1
  C  C39  1  0.74937600  0.81429600  0.25491800  1
  Ni  Ni40  1  0.11900900  0.13317600  0.75526600  1
  Ni  Ni41  1  0.13317600  0.01416700  0.25526600  1
  Ni  Ni42  1  0.00073100  0.68152000  0.75092400  1
  Ni  Ni43  1  0.37651100  0.37463500  0.24461500  1
  Ni  Ni44  1  0.28374900  0.14095300  0.56422200  1
  Ni  Ni45  1  0.14095300  0.85720400  0.06422200  1
  Ni  Ni46  1  0.28448100  0.14378300  0.94886800  1
  Ni  Ni47  1  0.14378300  0.85930100  0.44886800  1
  Ni  Ni48  1  0.31921100  0.00073100  0.25092400  1
  Ni  Ni49  1  0.00187600  0.37651100  0.74461500  1
  Ni  Ni50  1  0.55395600  0.43852000  0.45234700  1
  Ni  Ni51  1  0.11543600  0.55395600  0.95234700  1
  Ni  Ni52  1  0.45915600  0.24499000  0.26755700  1
  Ni  Ni53  1  0.13973200  0.56496200  0.56542400  1
  Ni  Ni54  1  0.56496200  0.42523000  0.06542400  1
  Ni  Ni55  1  0.68152000  0.68078900  0.25092400  1
  Ni  Ni56  1  0.24499000  0.78583400  0.76755700  1
  Ni  Ni57  1  0.37463500  0.99812400  0.74461500  1
  Ni  Ni58  1  0.98583300  0.11900900  0.25526600  1
  Ni  Ni59  1  0.21416600  0.45915600  0.76755700  1
  Ni  Ni60  1  0.14069900  0.28448100  0.44886800  1
  Ni  Ni61  1  0.43852000  0.88456400  0.95234700  1
  Ni  Ni62  1  0.14279600  0.28374900  0.06422200  1
  Ni  Ni63  1  0.57477000  0.13973200  0.06542400  1
  Ni  Ni64  1  0.42523000  0.86026800  0.56542400  1
  Ni  Ni65  1  0.85720400  0.71625100  0.56422200  1
  Ni  Ni66  1  0.56148000  0.11543600  0.45234700  1
  Ni  Ni67  1  0.85930100  0.71551900  0.94886800  1
  Ni  Ni68  1  0.78583400  0.54084400  0.26755700  1
  Ni  Ni69  1  0.01416700  0.88099100  0.75526600  1
  Ni  Ni70  1  0.62536500  0.00187600  0.24461500  1
  Ni  Ni71  1  0.75501000  0.21416600  0.26755700  1
  Ni  Ni72  1  0.31848000  0.31921100  0.75092400  1
  Ni  Ni73  1  0.43503800  0.57477000  0.56542400  1
  Ni  Ni74  1  0.86026800  0.43503800  0.06542400  1
  Ni  Ni75  1  0.54084400  0.75501000  0.76755700  1
  Ni  Ni76  1  0.88456400  0.44604400  0.45234700  1
  Ni  Ni77  1  0.44604400  0.56148000  0.95234700  1
  Ni  Ni78  1  0.99812400  0.62348900  0.24461500  1
  Ni  Ni79  1  0.68078900  0.99926900  0.75092400  1
  Ni  Ni80  1  0.85621700  0.14069900  0.94886800  1
  Ni  Ni81  1  0.71551900  0.85621700  0.44886800  1
  Ni  Ni82  1  0.85904700  0.14279600  0.56422200  1
  Ni  Ni83  1  0.71625100  0.85904700  0.06422200  1
  Ni  Ni84  1  0.62348900  0.62536500  0.74461500  1
  Ni  Ni85  1  0.99926900  0.31848000  0.25092400  1
  Ni  Ni86  1  0.86682400  0.98583300  0.75526600  1
  Ni  Ni87  1  0.88099100  0.86682400  0.25526600  1
  Cu  Cu88  1  0.25000900  0.72694600  0.28279100  1
  Cu  Cu89  1  0.52306300  0.25000900  0.78279100  1
  Cu  Cu90  1  0.72694600  0.47693700  0.78279100  1
  Cu  Cu91  1  0.27305400  0.52306300  0.28279100  1
  Cu  Cu92  1  0.47693700  0.74999100  0.28279100  1
  Cu  Cu93  1  0.74999100  0.27305400  0.78279100  1
