# generated using pymatgen
data_Cu4Ni2C
_symmetry_space_group_name_H-M   'P 1'
_cell_length_a   7.39502700
_cell_length_b   12.22791100
_cell_length_c   13.61964100
_cell_angle_alpha   90.00000000
_cell_angle_beta   90.00000000
_cell_angle_gamma   90.00000000
_symmetry_Int_Tables_number   1
_chemical_formula_structural   Cu4Ni2C
_chemical_formula_sum   'Cu32 Ni16 C8'
_cell_volume   1231.56600698
_cell_formula_units_Z   8
loop_
 _symmetry_equiv_pos_site_id
 _symmetry_equiv_pos_as_xyz
  1  'x, y, z'
loop_
 _atom_site_type_symbol
 _atom_site_label
 _atom_site_symmetry_multiplicity
 _atom_site_fract_x
 _atom_site_fract_y
 _atom_site_fract_z
 _atom_site_occupancy
  C  C0  1  0.79770300  0.54708400  0.38564900  1
  C  C1  1  0.20229700  0.04708400  0.61435100  1
  C  C2  1  0.29770300  0.04708400  0.11435100  1
  C  C3  1  0.70229700  0.54708400  0.88564900  1
  C  C4  1  0.70063500  0.93327900  0.05995200  1
  C  C5  1  0.29936500  0.43327900  0.94004800  1
  C  C6  1  0.20063500  0.43327900  0.44004800  1
  C  C7  1  0.79936500  0.93327900  0.55995200  1
  Ni  Ni8  1  0.72188800  0.90038000  0.36546700  1
  Ni  Ni9  1  0.27811200  0.40038000  0.63453300  1
  Ni  Ni10  1  0.22188800  0.40038000  0.13453300  1
  Ni  Ni11  1  0.77811200  0.90038000  0.86546700  1
  Ni  Ni12  1  0.73412300  0.21297200  0.25853900  1
  Ni  Ni13  1  0.26587700  0.71297200  0.74146100  1
  Ni  Ni14  1  0.23412300  0.71297200  0.24146100  1
  Ni  Ni15  1  0.76587700  0.21297200  0.75853900  1
  Ni  Ni16  1  0.79155200  0.63118500  0.19855000  1
  Ni  Ni17  1  0.20844800  0.13118500  0.80145000  1
  Ni  Ni18  1  0.29155200  0.13118500  0.30145000  1
  Ni  Ni19  1  0.70844800  0.63118500  0.69855000  1
  Ni  Ni20  1  0.86615200  0.32329800  0.99831200  1
  Ni  Ni21  1  0.13384800  0.82329800  0.00168800  1
  Ni  Ni22  1  0.36615200  0.82329800  0.50168800  1
  Ni  Ni23  1  0.63384800  0.32329800  0.49831200  1
  Cu  Cu24  1  0.79172000  0.59125800  0.48116200  1
  Cu  Cu25  1  0.20828000  0.09125800  0.51883800  1
  Cu  Cu26  1  0.29172000  0.09125800  0.01883800  1
  Cu  Cu27  1  0.70828000  0.59125800  0.98116200  1
  Cu  Cu28  1  0.79393500  0.45008600  0.32877000  1
  Cu  Cu29  1  0.20606500  0.95008600  0.67123000  1
  Cu  Cu30  1  0.29393500  0.95008600  0.17123000  1
  Cu  Cu31  1  0.70606500  0.45008600  0.82877000  1
  Cu  Cu32  1  0.61226900  0.62386400  0.19851700  1
  Cu  Cu33  1  0.38773100  0.12386400  0.80148300  1
  Cu  Cu34  1  0.11226900  0.12386400  0.30148300  1
  Cu  Cu35  1  0.88773100  0.62386400  0.69851700  1
  Cu  Cu36  1  0.83049100  0.65748800  0.30448600  1
  Cu  Cu37  1  0.16950900  0.15748800  0.69551400  1
  Cu  Cu38  1  0.33049100  0.15748800  0.19551400  1
  Cu  Cu39  1  0.66950900  0.65748800  0.80448600  1
  Cu  Cu40  1  0.81910100  0.91427400  0.28393000  1
  Cu  Cu41  1  0.18089900  0.41427400  0.71607000  1
  Cu  Cu42  1  0.31910100  0.41427400  0.21607000  1
  Cu  Cu43  1  0.68089900  0.91427400  0.78393000  1
  Cu  Cu44  1  0.75674200  0.04138200  0.07362000  1
  Cu  Cu45  1  0.24325800  0.54138200  0.92638000  1
  Cu  Cu46  1  0.25674200  0.54138200  0.42638000  1
  Cu  Cu47  1  0.74325800  0.04138200  0.57362000  1
  Cu  Cu48  1  0.99102000  0.84134200  0.06190100  1
  Cu  Cu49  1  0.00898000  0.34134200  0.93809900  1
  Cu  Cu50  1  0.49102000  0.34134200  0.43809900  1
  Cu  Cu51  1  0.50898000  0.84134200  0.56190100  1
  Cu  Cu52  1  0.61723300  0.83201100  0.06154600  1
  Cu  Cu53  1  0.38276700  0.33201100  0.93845400  1
  Cu  Cu54  1  0.11723300  0.33201100  0.43845400  1
  Cu  Cu55  1  0.88276700  0.83201100  0.56154600  1
