# generated using pymatgen
data_Cu2(NiC5)3
_symmetry_space_group_name_H-M   'P 1'
_cell_length_a   9.18682700
_cell_length_b   8.79547000
_cell_length_c   14.94269431
_cell_angle_alpha   56.06270972
_cell_angle_beta   90.00000000
_cell_angle_gamma   90.00000000
_symmetry_Int_Tables_number   1
_chemical_formula_structural   Cu2(NiC5)3
_chemical_formula_sum   'Cu8 Ni12 C60'
_cell_volume   1001.72370728
_cell_formula_units_Z   4
loop_
 _symmetry_equiv_pos_site_id
 _symmetry_equiv_pos_as_xyz
  1  'x, y, z'
loop_
 _atom_site_type_symbol
 _atom_site_label
 _atom_site_symmetry_multiplicity
 _atom_site_fract_x
 _atom_site_fract_y
 _atom_site_fract_z
 _atom_site_occupancy
  C  C0  1  0.91178400  0.37191000  0.69867700  1
  C  C1  1  0.49397800  0.71686200  0.34472500  1
  C  C2  1  0.22374900  0.00160300  0.17932500  1
  C  C3  1  0.72374900  0.99839700  0.32067500  1
  C  C4  1  0.41178400  0.62809000  0.80132300  1
  C  C5  1  0.99397800  0.28313800  0.15527500  1
  C  C6  1  0.00602200  0.71686200  0.84472500  1
  C  C7  1  0.58821600  0.37191000  0.19867700  1
  C  C8  1  0.27625100  0.00160300  0.67932500  1
  C  C9  1  0.77625100  0.99839700  0.82067500  1
  C  C10  1  0.50602200  0.28313800  0.65527500  1
  C  C11  1  0.08821600  0.62809000  0.30132300  1
  Ni  Ni12  1  0.75309000  0.54834600  0.49101200  1
  Ni  Ni13  1  0.62037200  0.26478900  0.85257800  1
  Ni  Ni14  1  0.88423100  0.96967000  0.14350700  1
  Ni  Ni15  1  0.12037200  0.73521100  0.64742200  1
  Ni  Ni16  1  0.38423100  0.03033000  0.35649300  1
  Ni  Ni17  1  0.25309000  0.45165400  0.00898800  1
  Ni  Ni18  1  0.74691000  0.54834600  0.99101200  1
  Ni  Ni19  1  0.61576900  0.96967000  0.64350700  1
  Ni  Ni20  1  0.87962800  0.26478900  0.35257800  1
  Ni  Ni21  1  0.11576900  0.03033000  0.85649300  1
  Ni  Ni22  1  0.37962800  0.73521100  0.14742200  1
  Ni  Ni23  1  0.24691000  0.45165400  0.50898800  1
  Cu  Cu24  1  0.97845400  0.35205400  0.89464200  1
  Cu  Cu25  1  0.47845400  0.64794600  0.60535800  1
  Cu  Cu26  1  0.02989000  0.86943100  0.38476900  1
  Cu  Cu27  1  0.52989000  0.13056900  0.11523100  1
  Cu  Cu28  1  0.47011000  0.86943100  0.88476900  1
  Cu  Cu29  1  0.97011000  0.13056900  0.61523100  1
  Cu  Cu30  1  0.52154600  0.35205400  0.39464200  1
  Cu  Cu31  1  0.02154600  0.64794600  0.10535800  1
  C  C32  1  0.11826700  0.62060800  0.43903700  1
  C  C33  1  0.10944700  0.16460900  0.90616000  1
  C  C34  1  0.33914800  0.45827800  0.60746000  1
  C  C35  1  0.42180300  0.87703700  0.19266400  1
  C  C36  1  0.62875300  0.51032500  0.59214100  1
  C  C37  1  0.81190400  0.28706700  0.84014300  1
  C  C38  1  0.57730400  0.15434000  0.98797600  1
  C  C39  1  0.01488700  0.87967500  0.24840200  1
  C  C40  1  0.71553000  0.98165300  0.19132700  1
  C  C41  1  0.82859700  0.76689800  0.42941300  1
  C  C42  1  0.52798500  0.46866400  0.77682500  1
  C  C43  1  0.02798500  0.53133600  0.72317500  1
  C  C44  1  0.94583100  0.19479300  0.05268100  1
  C  C45  1  0.44583100  0.80520700  0.44731900  1
  C  C46  1  0.32859700  0.23310200  0.07058700  1
  C  C47  1  0.21553000  0.01834700  0.30867300  1
  C  C48  1  0.07730400  0.84566000  0.51202400  1
  C  C49  1  0.51488700  0.12032500  0.25159800  1
  C  C50  1  0.31190400  0.71293300  0.65985700  1
  C  C51  1  0.12875300  0.48967500  0.90785900  1
  C  C52  1  0.83914800  0.54172200  0.89254000  1
  C  C53  1  0.60944700  0.83539100  0.59384000  1
  C  C54  1  0.92180300  0.12296300  0.30733600  1
  C  C55  1  0.61826700  0.37939200  0.06096300  1
  C  C56  1  0.38173300  0.62060800  0.93903700  1
  C  C57  1  0.07819700  0.87703700  0.69266400  1
  C  C58  1  0.39055300  0.16460900  0.40616000  1
  C  C59  1  0.16085200  0.45827800  0.10746000  1
  C  C60  1  0.87124700  0.51032500  0.09214100  1
  C  C61  1  0.68809600  0.28706700  0.34014300  1
  C  C62  1  0.48511300  0.87967500  0.74840200  1
  C  C63  1  0.92269600  0.15434000  0.48797600  1
  C  C64  1  0.78447000  0.98165300  0.69132700  1
  C  C65  1  0.67140300  0.76689800  0.92941300  1
  C  C66  1  0.55416900  0.19479300  0.55268100  1
  C  C67  1  0.05416900  0.80520700  0.94731900  1
  C  C68  1  0.97201500  0.46866400  0.27682500  1
  C  C69  1  0.47201500  0.53133600  0.22317500  1
  C  C70  1  0.17140300  0.23310200  0.57058700  1
  C  C71  1  0.28447000  0.01834700  0.80867300  1
  C  C72  1  0.98511300  0.12032500  0.75159800  1
  C  C73  1  0.42269600  0.84566000  0.01202400  1
  C  C74  1  0.18809600  0.71293300  0.15985700  1
  C  C75  1  0.37124700  0.48967500  0.40785900  1
  C  C76  1  0.57819700  0.12296300  0.80733600  1
  C  C77  1  0.66085200  0.54172200  0.39254000  1
  C  C78  1  0.89055300  0.83539100  0.09384000  1
  C  C79  1  0.88173300  0.37939200  0.56096300  1
