# generated using pymatgen
data_Cu(NiC2)2
_symmetry_space_group_name_H-M   'P 1'
_cell_length_a   6.16440100
_cell_length_b   6.19745340
_cell_length_c   8.27075920
_cell_angle_alpha   89.91114268
_cell_angle_beta   89.58925047
_cell_angle_gamma   83.98382736
_symmetry_Int_Tables_number   1
_chemical_formula_structural   Cu(NiC2)2
_chemical_formula_sum   'Cu4 Ni8 C16'
_cell_volume   314.22423357
_cell_formula_units_Z   4
loop_
 _symmetry_equiv_pos_site_id
 _symmetry_equiv_pos_as_xyz
  1  'x, y, z'
loop_
 _atom_site_type_symbol
 _atom_site_label
 _atom_site_symmetry_multiplicity
 _atom_site_fract_x
 _atom_site_fract_y
 _atom_site_fract_z
 _atom_site_occupancy
  Ni  Ni0  1  0.00104900  0.00559200  0.00410800  1
  Ni  Ni1  1  0.49449000  0.25068300  0.87711900  1
  Ni  Ni2  1  0.00817700  0.25641300  0.37566200  1
  Ni  Ni3  1  0.49444400  0.74445700  0.87445000  1
  Ni  Ni4  1  0.74855500  0.00078900  0.62307900  1
  Ni  Ni5  1  0.00382600  0.74889800  0.37350700  1
  Ni  Ni6  1  0.74876400  0.50152400  0.12663800  1
  Ni  Ni7  1  0.25151600  0.99925800  0.62290100  1
  Cu  Cu8  1  0.00142800  0.50132300  0.75146800  1
  Cu  Cu9  1  0.49874800  0.49855600  0.49843900  1
  Cu  Cu10  1  0.25067400  0.49949600  0.12667500  1
  Cu  Cu11  1  0.49855600  0.99568200  0.24672500  1
  C  C12  1  0.00823500  0.23412900  0.61388500  1
  C  C13  1  0.27071200  0.99066500  0.85915800  1
  C  C14  1  0.73337300  0.50940000  0.89045600  1
  C  C15  1  0.76711400  0.99202600  0.38164500  1
  C  C16  1  0.26341600  0.49168700  0.89087200  1
  C  C17  1  0.50769700  0.23515100  0.63645200  1
  C  C18  1  0.72657500  0.00685600  0.86316300  1
  C  C19  1  0.76661200  0.49008800  0.36231500  1
  C  C20  1  0.49307200  0.76380100  0.63461000  1
  C  C21  1  0.00790400  0.72753300  0.13915900  1
  C  C22  1  0.99071400  0.76695000  0.61269900  1
  C  C23  1  0.49291500  0.26508800  0.11423100  1
  C  C24  1  0.23704700  0.50872300  0.36167600  1
  C  C25  1  0.02311100  0.29207800  0.13639300  1
  C  C26  1  0.23360900  0.00903100  0.38580800  1
  C  C27  1  0.47766500  0.71412600  0.11671000  1
