# generated using pymatgen
data_Cu2NiC4
_symmetry_space_group_name_H-M   'P 1'
_cell_length_a   5.93989310
_cell_length_b   5.93989310
_cell_length_c   5.93989310
_cell_angle_alpha   60.86450801
_cell_angle_beta   88.64537120
_cell_angle_gamma   119.30660125
_symmetry_Int_Tables_number   1
_chemical_formula_structural   Cu2NiC4
_chemical_formula_sum   'Cu4 Ni2 C8'
_cell_volume   149.88971250
_cell_formula_units_Z   2
loop_
 _symmetry_equiv_pos_site_id
 _symmetry_equiv_pos_as_xyz
  1  'x, y, z'
loop_
 _atom_site_type_symbol
 _atom_site_label
 _atom_site_symmetry_multiplicity
 _atom_site_fract_x
 _atom_site_fract_y
 _atom_site_fract_z
 _atom_site_occupancy
  Ni  Ni0  1  0.50000000  0.00000000  0.00000000  1
  Ni  Ni1  1  0.50000000  0.50000000  0.50000000  1
  Cu  Cu2  1  0.50000000  0.00000000  0.50000000  1
  Cu  Cu3  1  0.12161200  0.25000000  0.12838800  1
  Cu  Cu4  1  0.87838800  0.75000000  0.87161200  1
  Cu  Cu5  1  0.00000000  0.50000000  0.50000000  1
  C  C6  1  0.74129300  0.48105200  0.27765500  1
  C  C7  1  0.74129300  0.01894800  0.73975800  1
  C  C8  1  0.74672600  0.48146400  0.73473700  1
  C  C9  1  0.28379900  0.01853600  0.73473700  1
  C  C10  1  0.71620100  0.98146400  0.26526300  1
  C  C11  1  0.25327400  0.51853600  0.26526300  1
  C  C12  1  0.25870700  0.98105200  0.26024200  1
  C  C13  1  0.25870700  0.51894800  0.72234500  1
