# generated using pymatgen
data_Cu3(NiC7)2
_symmetry_space_group_name_H-M   'P 1'
_cell_length_a   8.38793800
_cell_length_b   14.23245300
_cell_length_c   20.11243565
_cell_angle_alpha   74.29545482
_cell_angle_beta   90.00000000
_cell_angle_gamma   90.00000000
_symmetry_Int_Tables_number   1
_chemical_formula_structural   Cu3(NiC7)2
_chemical_formula_sum   'Cu24 Ni16 C112'
_cell_volume   2311.41113195
_cell_formula_units_Z   8
loop_
 _symmetry_equiv_pos_site_id
 _symmetry_equiv_pos_as_xyz
  1  'x, y, z'
loop_
 _atom_site_type_symbol
 _atom_site_label
 _atom_site_symmetry_multiplicity
 _atom_site_fract_x
 _atom_site_fract_y
 _atom_site_fract_z
 _atom_site_occupancy
  C  C0  1  0.31982700  0.98709000  0.78251700  1
  C  C1  1  0.97720000  0.28945600  0.58443800  1
  C  C2  1  0.01422400  0.89877500  0.58815500  1
  C  C3  1  0.47720000  0.71054400  0.91556200  1
  C  C4  1  0.52280000  0.28945600  0.08443800  1
  C  C5  1  0.02280000  0.71054400  0.41556200  1
  C  C6  1  0.01697700  0.49860100  0.73555300  1
  C  C7  1  0.51422400  0.10122500  0.91184500  1
  C  C8  1  0.81982700  0.01291000  0.71748300  1
  C  C9  1  0.48302300  0.49860100  0.23555300  1
  C  C10  1  0.48577600  0.89877500  0.08815500  1
  C  C11  1  0.98577600  0.10122500  0.41184500  1
  C  C12  1  0.51697700  0.50139900  0.76444700  1
  C  C13  1  0.18017300  0.98709000  0.28251700  1
  C  C14  1  0.98302300  0.50139900  0.26444700  1
  C  C15  1  0.68017300  0.01291000  0.21748300  1
  Ni  Ni16  1  0.04623000  0.71013400  0.94672100  1
  Ni  Ni17  1  0.37563800  0.22137700  0.42989900  1
  Ni  Ni18  1  0.95377000  0.28986600  0.05327900  1
  Ni  Ni19  1  0.54623000  0.28986600  0.55327900  1
  Ni  Ni20  1  0.82902400  0.58591800  0.87602800  1
  Ni  Ni21  1  0.06769100  0.88318400  0.15821500  1
  Ni  Ni22  1  0.17097600  0.41408200  0.12397200  1
  Ni  Ni23  1  0.12436200  0.22137700  0.92989900  1
  Ni  Ni24  1  0.32902400  0.41408200  0.62397200  1
  Ni  Ni25  1  0.56769100  0.11681600  0.34178500  1
  Ni  Ni26  1  0.45377000  0.71013400  0.44672100  1
  Ni  Ni27  1  0.87563800  0.77862300  0.07010100  1
  Ni  Ni28  1  0.67097600  0.58591800  0.37602800  1
  Ni  Ni29  1  0.62436200  0.77862300  0.57010100  1
  Ni  Ni30  1  0.93230900  0.11681600  0.84178500  1
  Ni  Ni31  1  0.43230900  0.88318400  0.65821500  1
  Cu  Cu32  1  0.36051800  0.96044100  0.45013700  1
  Cu  Cu33  1  0.23582800  0.25751100  0.75588500  1
  Cu  Cu34  1  0.62643500  0.25112100  0.73217300  1
  Cu  Cu35  1  0.86051800  0.03955900  0.04986300  1
  Cu  Cu36  1  0.20243200  0.12036400  0.08766200  1
  Cu  Cu37  1  0.76427900  0.32690000  0.89749300  1
  Cu  Cu38  1  0.13948200  0.96044100  0.95013700  1
  Cu  Cu39  1  0.23572100  0.67310000  0.10250700  1
  Cu  Cu40  1  0.12643500  0.74887900  0.76782700  1
  Cu  Cu41  1  0.63948200  0.03955900  0.54986300  1
  Cu  Cu42  1  0.81240300  0.53421100  0.04706000  1
  Cu  Cu43  1  0.76417200  0.74248900  0.24411500  1
  Cu  Cu44  1  0.70243200  0.87963600  0.41233800  1
  Cu  Cu45  1  0.87356500  0.25112100  0.23217300  1
  Cu  Cu46  1  0.29756800  0.12036400  0.58766200  1
  Cu  Cu47  1  0.26427900  0.67310000  0.60250700  1
  Cu  Cu48  1  0.26417200  0.25751100  0.25588500  1
  Cu  Cu49  1  0.37356500  0.74887900  0.26782700  1
  Cu  Cu50  1  0.18759700  0.46578900  0.95294000  1
  Cu  Cu51  1  0.31240300  0.46578900  0.45294000  1
  Cu  Cu52  1  0.73572100  0.32690000  0.39749300  1
  Cu  Cu53  1  0.68759700  0.53421100  0.54706000  1
  Cu  Cu54  1  0.73582800  0.74248900  0.74411500  1
  Cu  Cu55  1  0.79756800  0.87963600  0.91233800  1
  C  C56  1  0.57063100  0.29908800  0.87569000  1
  C  C57  1  0.83166000  0.76656000  0.88846600  1
  C  C58  1  0.22971100  0.85684500  0.71193700  1
  C  C59  1  0.70255000  0.83377900  0.99715000  1
  C  C60  1  0.32564400  0.48864600  0.88649100  1
  C  C61  1  0.35296200  0.09144300  0.40156200  1
  C  C62  1  0.40831800  0.34791100  0.45946900  1
  C  C63  1  0.77028900  0.14315500  0.28806300  1
  C  C64  1  0.67161000  0.08056500  0.06601800  1
  C  C65  1  0.79249600  0.70413100  0.16770100  1
  C  C66  1  0.33166000  0.23344000  0.61153400  1
  C  C67  1  0.43824200  0.34206400  0.71164300  1
  C  C68  1  0.82738800  0.24276300  0.14599500  1
  C  C69  1  0.91252200  0.83673400  0.24082700  1
  C  C70  1  0.06175800  0.34206400  0.21164300  1
  C  C71  1  0.14703800  0.09144300  0.90156200  1
  C  C72  1  0.47462300  0.03351500  0.63544400  1
  C  C73  1  0.81659700  0.45117900  0.85359800  1
  C  C74  1  0.67261200  0.24276300  0.64599500  1
  C  C75  1  0.42025100  0.17244700  0.77513600  1
  C  C76  1  0.92936900  0.29908800  0.37569000  1
  C  C77  1  0.85296200  0.90855700  0.09843800  1
  C  C78  1  0.74183700  0.31489400  0.48967900  1
  C  C79  1  0.36107100  0.06346400  0.14077600  1
  C  C80  1  0.86107100  0.93653600  0.35922400  1
  C  C81  1  0.14496800  0.35418500  0.68468600  1
  C  C82  1  0.58747800  0.83673400  0.74082700  1
  C  C83  1  0.51642200  0.16017500  0.52345100  1
  C  C84  1  0.15957000  0.97864200  0.03673500  1
  C  C85  1  0.32839000  0.91943500  0.93398200  1
  C  C86  1  0.18340300  0.54882100  0.14640200  1
  C  C87  1  0.48357800  0.83982500  0.47654900  1
  C  C88  1  0.85503200  0.64581500  0.31531400  1
  C  C89  1  0.17261200  0.75723700  0.85400500  1
  C  C90  1  0.13892900  0.06346400  0.64077600  1
  C  C91  1  0.32738800  0.75723700  0.35400500  1
  C  C92  1  0.07063100  0.70091200  0.62431000  1
  C  C93  1  0.34043000  0.97864200  0.53673500  1
  C  C94  1  0.17161000  0.91943500  0.43398200  1
  C  C95  1  0.07974900  0.17244700  0.27513600  1
  C  C96  1  0.35503200  0.35418500  0.18468600  1
  C  C97  1  0.68340300  0.45117900  0.35359800  1
  C  C98  1  0.24183700  0.68510600  0.01032100  1
  C  C99  1  0.09715300  0.76601400  0.11828300  1
  C  C100  1  0.20750400  0.29586900  0.83229900  1
  C  C101  1  0.40284700  0.76601400  0.61828300  1
  C  C102  1  0.82839000  0.08056500  0.56601800  1
  C  C103  1  0.97462300  0.96648500  0.86455600  1
  C  C104  1  0.53866800  0.43231100  0.56601600  1
  C  C105  1  0.92025100  0.82755300  0.72486400  1
  C  C106  1  0.59715300  0.23398600  0.38171700  1
  C  C107  1  0.56175800  0.65793600  0.28835700  1
  C  C108  1  0.64496800  0.64581500  0.81531400  1
  C  C109  1  0.96133200  0.43231100  0.06601600  1
  C  C110  1  0.65957000  0.02135800  0.46326500  1
  C  C111  1  0.02537700  0.03351500  0.13544400  1
  C  C112  1  0.79474600  0.54524100  0.46785900  1
  C  C113  1  0.08747800  0.16326600  0.75917300  1
  C  C114  1  0.93824200  0.65793600  0.78835700  1
  C  C115  1  0.63892900  0.93653600  0.85922400  1
  C  C116  1  0.70525400  0.54524100  0.96785900  1
  C  C117  1  0.75816300  0.31489400  0.98967900  1
  C  C118  1  0.20525400  0.45475900  0.53214100  1
  C  C119  1  0.52537700  0.96648500  0.36455600  1
  C  C120  1  0.01642200  0.83982500  0.97654900  1
  C  C121  1  0.57974900  0.82755300  0.22486400  1
  C  C122  1  0.24782700  0.65623600  0.75219300  1
  C  C123  1  0.82564400  0.51135400  0.61350900  1
  C  C124  1  0.31659700  0.54882100  0.64640200  1
  C  C125  1  0.90284700  0.23398600  0.88171700  1
  C  C126  1  0.59168200  0.65208900  0.54053100  1
  C  C127  1  0.84043000  0.02135800  0.96326500  1
  C  C128  1  0.03866800  0.56768900  0.93398400  1
  C  C129  1  0.42936900  0.70091200  0.12431000  1
  C  C130  1  0.46133200  0.56768900  0.43398400  1
  C  C131  1  0.29745000  0.16622100  0.00285000  1
  C  C132  1  0.74782700  0.34376400  0.74780700  1
  C  C133  1  0.41252200  0.16326600  0.25917300  1
  C  C134  1  0.90831800  0.65208900  0.04053100  1
  C  C135  1  0.27028900  0.85684500  0.21193700  1
  C  C136  1  0.75217300  0.34376400  0.24780700  1
  C  C137  1  0.17435600  0.48864600  0.38649100  1
  C  C138  1  0.79745000  0.83377900  0.49715000  1
  C  C139  1  0.16834000  0.23344000  0.11153400  1
  C  C140  1  0.20255000  0.16622100  0.50285000  1
  C  C141  1  0.29249600  0.29586900  0.33229900  1
  C  C142  1  0.25816300  0.68510600  0.51032100  1
  C  C143  1  0.64703800  0.90855700  0.59843800  1
  C  C144  1  0.67435600  0.51135400  0.11350900  1
  C  C145  1  0.70750400  0.70413100  0.66770100  1
  C  C146  1  0.09168200  0.34791100  0.95946900  1
  C  C147  1  0.29474600  0.45475900  0.03214100  1
  C  C148  1  0.66834000  0.76656000  0.38846600  1
  C  C149  1  0.72971100  0.14315500  0.78806300  1
  C  C150  1  0.25217300  0.65623600  0.25219300  1
  C  C151  1  0.98357800  0.16017500  0.02345100  1
