# generated using pymatgen
data_Cu12Ni3C5
_symmetry_space_group_name_H-M   'P 1'
_cell_length_a   9.14556270
_cell_length_b   9.14556270
_cell_length_c   9.14556263
_cell_angle_alpha   56.03707382
_cell_angle_beta   56.03707382
_cell_angle_gamma   56.03707507
_symmetry_Int_Tables_number   1
_chemical_formula_structural   Cu12Ni3C5
_chemical_formula_sum   'Cu24 Ni6 C10'
_cell_volume   491.24787015
_cell_formula_units_Z   2
loop_
 _symmetry_equiv_pos_site_id
 _symmetry_equiv_pos_as_xyz
  1  'x, y, z'
loop_
 _atom_site_type_symbol
 _atom_site_label
 _atom_site_symmetry_multiplicity
 _atom_site_fract_x
 _atom_site_fract_y
 _atom_site_fract_z
 _atom_site_occupancy
  C  C0  1  0.72822700  0.07848400  0.34229500  1
  C  C1  1  0.65770500  0.27177300  0.92151600  1
  C  C2  1  0.92151600  0.65770500  0.27177300  1
  C  C3  1  0.07848400  0.34229500  0.72822700  1
  C  C4  1  0.34229500  0.72822700  0.07848400  1
  C  C5  1  0.27177300  0.92151600  0.65770500  1
  C  C6  1  0.85199800  0.85199800  0.85199800  1
  C  C7  1  0.65602200  0.65602200  0.65602200  1
  C  C8  1  0.34397800  0.34397800  0.34397800  1
  C  C9  1  0.14800200  0.14800200  0.14800200  1
  Ni  Ni10  1  0.95375300  0.25027200  0.54674200  1
  Ni  Ni11  1  0.45325800  0.04624700  0.74972800  1
  Ni  Ni12  1  0.74972800  0.45325800  0.04624700  1
  Ni  Ni13  1  0.25027200  0.54674200  0.95375300  1
  Ni  Ni14  1  0.54674200  0.95375300  0.25027200  1
  Ni  Ni15  1  0.04624700  0.74972800  0.45325800  1
  Cu  Cu16  1  0.79597200  0.44905500  0.85960400  1
  Cu  Cu17  1  0.85960400  0.79597200  0.44905500  1
  Cu  Cu18  1  0.98710300  0.19522700  0.40568000  1
  Cu  Cu19  1  0.85133600  0.14272200  0.74212100  1
  Cu  Cu20  1  0.44905500  0.85960400  0.79597200  1
  Cu  Cu21  1  0.85727800  0.25787900  0.14866400  1
  Cu  Cu22  1  0.59432000  0.01289700  0.80477300  1
  Cu  Cu23  1  0.84487800  0.45695400  0.50506400  1
  Cu  Cu24  1  0.49493600  0.15512200  0.54304600  1
  Cu  Cu25  1  0.80477300  0.59432000  0.01289700  1
  Cu  Cu26  1  0.25787900  0.14866400  0.85727800  1
  Cu  Cu27  1  0.54304600  0.49493600  0.15512200  1
  Cu  Cu28  1  0.45695400  0.50506400  0.84487800  1
  Cu  Cu29  1  0.74212100  0.85133600  0.14272200  1
  Cu  Cu30  1  0.19522700  0.40568000  0.98710300  1
  Cu  Cu31  1  0.50506400  0.84487800  0.45695400  1
  Cu  Cu32  1  0.15512200  0.54304600  0.49493600  1
  Cu  Cu33  1  0.40568000  0.98710300  0.19522700  1
  Cu  Cu34  1  0.14272200  0.74212100  0.85133600  1
  Cu  Cu35  1  0.55094500  0.14039600  0.20402800  1
  Cu  Cu36  1  0.14866400  0.85727800  0.25787900  1
  Cu  Cu37  1  0.01289700  0.80477300  0.59432000  1
  Cu  Cu38  1  0.14039600  0.20402800  0.55094500  1
  Cu  Cu39  1  0.20402800  0.55094500  0.14039600  1
