# generated using pymatgen
data_CuNi3C7
_symmetry_space_group_name_H-M   'P 1'
_cell_length_a   13.52425600
_cell_length_b   6.10886800
_cell_length_c   6.82150577
_cell_angle_alpha   62.09877328
_cell_angle_beta   90.00000000
_cell_angle_gamma   90.00000000
_symmetry_Int_Tables_number   1
_chemical_formula_structural   CuNi3C7
_chemical_formula_sum   'Cu4 Ni12 C28'
_cell_volume   498.06561340
_cell_formula_units_Z   4
loop_
 _symmetry_equiv_pos_site_id
 _symmetry_equiv_pos_as_xyz
  1  'x, y, z'
loop_
 _atom_site_type_symbol
 _atom_site_label
 _atom_site_symmetry_multiplicity
 _atom_site_fract_x
 _atom_site_fract_y
 _atom_site_fract_z
 _atom_site_occupancy
  C  C0  1  0.38642500  0.94829200  0.40200400  1
  C  C1  1  0.88642500  0.05170800  0.09799600  1
  C  C2  1  0.61357500  0.05170800  0.59799600  1
  C  C3  1  0.11357500  0.94829200  0.90200400  1
  Ni  Ni4  1  0.57204200  0.77225400  0.37195200  1
  Ni  Ni5  1  0.07204200  0.22774600  0.12804800  1
  Ni  Ni6  1  0.42795800  0.22774600  0.62804900  1
  Ni  Ni7  1  0.92795800  0.77225400  0.87195100  1
  Ni  Ni8  1  0.47205300  0.67936200  0.18833500  1
  Ni  Ni9  1  0.97205300  0.32063800  0.31166500  1
  Ni  Ni10  1  0.52794700  0.32063800  0.81166500  1
  Ni  Ni11  1  0.02794700  0.67936200  0.68833500  1
  Ni  Ni12  1  0.36458100  0.74051700  0.07762000  1
  Ni  Ni13  1  0.86458100  0.25948300  0.42238000  1
  Ni  Ni14  1  0.63541900  0.25948300  0.92238000  1
  Ni  Ni15  1  0.13541900  0.74051700  0.57762000  1
  Cu  Cu16  1  0.84089900  0.59954900  0.57573300  1
  Cu  Cu17  1  0.34089900  0.40045100  0.92426700  1
  Cu  Cu18  1  0.15910100  0.40045100  0.42426700  1
  Cu  Cu19  1  0.65910100  0.59954900  0.07573300  1
  C  C20  1  0.91421200  0.70706800  0.37598500  1
  C  C21  1  0.41421200  0.29293200  0.12401500  1
  C  C22  1  0.08578800  0.29293200  0.62401500  1
  C  C23  1  0.58578800  0.70706800  0.87598500  1
  C  C24  1  0.76042100  0.77772600  0.52582000  1
  C  C25  1  0.26042100  0.22227400  0.97418000  1
  C  C26  1  0.23957900  0.22227400  0.47418000  1
  C  C27  1  0.73957900  0.77772600  0.02582000  1
  C  C28  1  0.90035600  0.56482700  0.77416700  1
  C  C29  1  0.40035600  0.43517300  0.72583300  1
  C  C30  1  0.09964400  0.43517300  0.22583300  1
  C  C31  1  0.59964400  0.56482700  0.27416700  1
  C  C32  1  0.80904100  0.35601300  0.60309600  1
  C  C33  1  0.30904100  0.64398700  0.89690400  1
  C  C34  1  0.19095900  0.64398700  0.39690400  1
  C  C35  1  0.69095900  0.35601300  0.10309600  1
  C  C36  1  0.53801400  0.87622800  0.42861700  1
  C  C37  1  0.03801400  0.12377200  0.07138300  1
  C  C38  1  0.46198600  0.12377200  0.57138300  1
  C  C39  1  0.96198600  0.87622800  0.92861700  1
  C  C40  1  0.41232500  0.78131200  0.16659000  1
  C  C41  1  0.91232500  0.21868800  0.33341000  1
  C  C42  1  0.58767500  0.21868800  0.83341000  1
  C  C43  1  0.08767500  0.78131200  0.66659000  1
