# generated using pymatgen
data_Cu4Ni4C
_symmetry_space_group_name_H-M   'P 1'
_cell_length_a   8.28696100
_cell_length_b   8.85752000
_cell_length_c   11.72485907
_cell_angle_alpha   77.46622161
_cell_angle_beta   90.00000000
_cell_angle_gamma   90.00000000
_symmetry_Int_Tables_number   1
_chemical_formula_structural   Cu4Ni4C
_chemical_formula_sum   'Cu16 Ni16 C4'
_cell_volume   840.11693624
_cell_formula_units_Z   4
loop_
 _symmetry_equiv_pos_site_id
 _symmetry_equiv_pos_as_xyz
  1  'x, y, z'
loop_
 _atom_site_type_symbol
 _atom_site_label
 _atom_site_symmetry_multiplicity
 _atom_site_fract_x
 _atom_site_fract_y
 _atom_site_fract_z
 _atom_site_occupancy
  C  C0  1  0.16352800  0.95243600  0.63603400  1
  C  C1  1  0.66352800  0.04756400  0.86396600  1
  C  C2  1  0.83647200  0.04756400  0.36396600  1
  C  C3  1  0.33647200  0.95243600  0.13603400  1
  Ni  Ni4  1  0.28607100  0.10254600  0.48248300  1
  Ni  Ni5  1  0.78607100  0.89745400  0.01751700  1
  Ni  Ni6  1  0.71392900  0.89745400  0.51751700  1
  Ni  Ni7  1  0.21392900  0.10254600  0.98248300  1
  Ni  Ni8  1  0.09707000  0.29836500  0.57629400  1
  Ni  Ni9  1  0.59707000  0.70163500  0.92370600  1
  Ni  Ni10  1  0.90293000  0.70163500  0.42370600  1
  Ni  Ni11  1  0.40293000  0.29836500  0.07629400  1
  Ni  Ni12  1  0.27802700  0.73294300  0.61222300  1
  Ni  Ni13  1  0.77802700  0.26705700  0.88777700  1
  Ni  Ni14  1  0.72197300  0.26705700  0.38777700  1
  Ni  Ni15  1  0.22197300  0.73294300  0.11222300  1
  Ni  Ni16  1  0.08754300  0.64906800  0.80689800  1
  Ni  Ni17  1  0.58754300  0.35093200  0.69310200  1
  Ni  Ni18  1  0.91245700  0.35093200  0.19310200  1
  Ni  Ni19  1  0.41245700  0.64906800  0.30689800  1
  Cu  Cu20  1  0.05781200  0.14383400  0.66262800  1
  Cu  Cu21  1  0.55781200  0.85616600  0.83737200  1
  Cu  Cu22  1  0.94218800  0.85616600  0.33737200  1
  Cu  Cu23  1  0.44218800  0.14383400  0.16262800  1
  Cu  Cu24  1  0.22405600  0.27900700  0.47507600  1
  Cu  Cu25  1  0.72405600  0.72099300  0.02492400  1
  Cu  Cu26  1  0.77594400  0.72099300  0.52492400  1
  Cu  Cu27  1  0.27594400  0.27900700  0.97507600  1
  Cu  Cu28  1  0.05262800  0.82534700  0.77536900  1
  Cu  Cu29  1  0.55262800  0.17465300  0.72463100  1
  Cu  Cu30  1  0.94737200  0.17465300  0.22463100  1
  Cu  Cu31  1  0.44737200  0.82534700  0.27536900  1
  Cu  Cu32  1  0.21266300  0.59427000  0.71760700  1
  Cu  Cu33  1  0.71266300  0.40573000  0.78239300  1
  Cu  Cu34  1  0.78733700  0.40573000  0.28239300  1
  Cu  Cu35  1  0.28733700  0.59427000  0.21760700  1
