# generated using pymatgen
data_Cu3(NiC14)2
_symmetry_space_group_name_H-M   'P 1'
_cell_length_a   6.46870649
_cell_length_b   6.46870649
_cell_length_c   18.98177295
_cell_angle_alpha   87.50657136
_cell_angle_beta   87.50657136
_cell_angle_gamma   75.46899828
_symmetry_Int_Tables_number   1
_chemical_formula_structural   Cu3(NiC14)2
_chemical_formula_sum   'Cu6 Ni4 C56'
_cell_volume   767.70490588
_cell_formula_units_Z   2
loop_
 _symmetry_equiv_pos_site_id
 _symmetry_equiv_pos_as_xyz
  1  'x, y, z'
loop_
 _atom_site_type_symbol
 _atom_site_label
 _atom_site_symmetry_multiplicity
 _atom_site_fract_x
 _atom_site_fract_y
 _atom_site_fract_z
 _atom_site_occupancy
  Ni  Ni0  1  0.11816300  0.58060200  0.57810300  1
  Ni  Ni1  1  0.41939800  0.88183700  0.92189700  1
  Ni  Ni2  1  0.88183700  0.41939800  0.42189700  1
  Ni  Ni3  1  0.58060200  0.11816300  0.07810300  1
  Cu  Cu4  1  0.38996500  0.61003500  0.75000000  1
  Cu  Cu5  1  0.61003500  0.38996500  0.25000000  1
  Cu  Cu6  1  0.82768100  0.34582000  0.90291800  1
  Cu  Cu7  1  0.65418000  0.17231900  0.59708200  1
  Cu  Cu8  1  0.17231900  0.65418000  0.09708200  1
  Cu  Cu9  1  0.34582000  0.82768100  0.40291800  1
  C  C10  1  0.15365300  0.18571200  0.68187300  1
  C  C11  1  0.81428800  0.84634700  0.81812700  1
  C  C12  1  0.84634700  0.81428800  0.31812700  1
  C  C13  1  0.18571200  0.15365300  0.18187300  1
  C  C14  1  0.96889200  0.50622800  0.75154100  1
  C  C15  1  0.49377200  0.03110800  0.74845900  1
  C  C16  1  0.03110800  0.49377200  0.24845900  1
  C  C17  1  0.50622800  0.96889200  0.25154100  1
  C  C18  1  0.81072800  0.18927200  0.75000000  1
  C  C19  1  0.18927200  0.81072800  0.25000000  1
  C  C20  1  0.88049900  0.80620300  0.92427800  1
  C  C21  1  0.19379700  0.11950100  0.57572200  1
  C  C22  1  0.11950100  0.19379700  0.07572200  1
  C  C23  1  0.80620300  0.88049900  0.42427800  1
  C  C24  1  0.33915300  0.38395000  0.92269100  1
  C  C25  1  0.61605000  0.66084700  0.57730900  1
  C  C26  1  0.66084700  0.61605000  0.07730900  1
  C  C27  1  0.38395000  0.33915300  0.42269100  1
  C  C28  1  0.00000000  0.00000000  0.50000000  1
  C  C29  1  0.00000000  0.00000000  0.00000000  1
  C  C30  1  0.44021700  0.53008100  0.87547300  1
  C  C31  1  0.46991900  0.55978300  0.62452700  1
  C  C32  1  0.55978300  0.46991900  0.12452700  1
  C  C33  1  0.53008100  0.44021700  0.37547300  1
  C  C34  1  0.21719400  0.50603900  0.98068400  1
  C  C35  1  0.49396100  0.78280600  0.51931600  1
  C  C36  1  0.78280600  0.49396100  0.01931600  1
  C  C37  1  0.50603900  0.21719400  0.48068400  1
  C  C38  1  0.20285000  0.28955700  0.87933300  1
  C  C39  1  0.71044300  0.79715000  0.62066700  1
  C  C40  1  0.79715000  0.71044300  0.12066700  1
  C  C41  1  0.28955700  0.20285000  0.37933300  1
  C  C42  1  0.52017000  0.20971100  0.94976000  1
  C  C43  1  0.79028900  0.47983000  0.55024000  1
  C  C44  1  0.47983000  0.79028900  0.05024000  1
  C  C45  1  0.20971100  0.52017000  0.44976000  1
  C  C46  1  0.98262300  0.69952500  0.77444100  1
  C  C47  1  0.30047500  0.01737700  0.72555900  1
  C  C48  1  0.01737700  0.30047500  0.22555900  1
  C  C49  1  0.69952500  0.98262300  0.27444100  1
  C  C50  1  0.14131900  0.40404300  0.71012700  1
  C  C51  1  0.59595700  0.85868100  0.78987300  1
  C  C52  1  0.85868100  0.59595700  0.28987300  1
  C  C53  1  0.40404300  0.14131900  0.21012700  1
  C  C54  1  0.94361400  0.14138000  0.68535400  1
  C  C55  1  0.85862000  0.05638600  0.81464600  1
  C  C56  1  0.05638600  0.85862000  0.31464600  1
  C  C57  1  0.14138000  0.94361400  0.18535400  1
  C  C58  1  0.80208700  0.41530200  0.77159200  1
  C  C59  1  0.58469800  0.19791300  0.72840800  1
  C  C60  1  0.19791300  0.58469800  0.22840800  1
  C  C61  1  0.41530200  0.80208700  0.27159200  1
  C  C62  1  0.24967500  0.19864800  0.61025000  1
  C  C63  1  0.80135200  0.75032500  0.88975000  1
  C  C64  1  0.75032500  0.80135200  0.38975000  1
  C  C65  1  0.19864800  0.24967500  0.11025000  1
