# generated using pymatgen
data_Cu2Ni8C17
_symmetry_space_group_name_H-M   'P 1'
_cell_length_a   8.80965600
_cell_length_b   11.91402400
_cell_length_c   17.02935900
_cell_angle_alpha   90.00000000
_cell_angle_beta   90.00000000
_cell_angle_gamma   90.00000000
_symmetry_Int_Tables_number   1
_chemical_formula_structural   Cu2Ni8C17
_chemical_formula_sum   'Cu8 Ni32 C68'
_cell_volume   1787.37517649
_cell_formula_units_Z   4
loop_
 _symmetry_equiv_pos_site_id
 _symmetry_equiv_pos_as_xyz
  1  'x, y, z'
loop_
 _atom_site_type_symbol
 _atom_site_label
 _atom_site_symmetry_multiplicity
 _atom_site_fract_x
 _atom_site_fract_y
 _atom_site_fract_z
 _atom_site_occupancy
  C  C0  1  0.53106600  0.25000000  0.36152500  1
  C  C1  1  0.96893400  0.25000000  0.86152500  1
  C  C2  1  0.46893400  0.75000000  0.63847500  1
  C  C3  1  0.03106600  0.75000000  0.13847500  1
  C  C4  1  0.02116400  0.25000000  0.45716200  1
  C  C5  1  0.47883600  0.25000000  0.95716200  1
  C  C6  1  0.97883600  0.75000000  0.54283800  1
  C  C7  1  0.52116400  0.75000000  0.04283800  1
  C  C8  1  0.80422300  0.04985400  0.65093900  1
  C  C9  1  0.69577700  0.45014600  0.15093900  1
  C  C10  1  0.19577700  0.54985400  0.34906100  1
  C  C11  1  0.30422300  0.95014600  0.84906100  1
  C  C12  1  0.19577700  0.95014600  0.34906100  1
  C  C13  1  0.30422300  0.54985400  0.84906100  1
  C  C14  1  0.80422300  0.45014600  0.65093900  1
  C  C15  1  0.69577700  0.04985400  0.15093900  1
  C  C16  1  0.86830900  0.01576900  0.43195500  1
  C  C17  1  0.63169100  0.48423100  0.93195500  1
  C  C18  1  0.13169100  0.51576900  0.56804500  1
  C  C19  1  0.36830900  0.98423100  0.06804500  1
  C  C20  1  0.13169100  0.98423100  0.56804500  1
  C  C21  1  0.36830900  0.51576900  0.06804500  1
  C  C22  1  0.86830900  0.48423100  0.43195500  1
  C  C23  1  0.63169100  0.01576900  0.93195500  1
  C  C24  1  0.84329400  0.05087500  0.34635400  1
  C  C25  1  0.65670600  0.44912500  0.84635400  1
  C  C26  1  0.15670600  0.55087500  0.65364600  1
  C  C27  1  0.34329400  0.94912500  0.15364600  1
  C  C28  1  0.15670600  0.94912500  0.65364600  1
  C  C29  1  0.34329400  0.55087500  0.15364600  1
  C  C30  1  0.84329400  0.44912500  0.34635400  1
  C  C31  1  0.65670600  0.05087500  0.84635400  1
  C  C32  1  0.40287800  0.25000000  0.63598300  1
  C  C33  1  0.09712200  0.25000000  0.13598300  1
  C  C34  1  0.59712200  0.75000000  0.36401700  1
  C  C35  1  0.90287800  0.75000000  0.86401700  1
  C  C36  1  0.15588000  0.25000000  0.64051900  1
  C  C37  1  0.34412000  0.25000000  0.14051900  1
  C  C38  1  0.84412000  0.75000000  0.35948100  1
  C  C39  1  0.65588000  0.75000000  0.85948100  1
  C  C40  1  0.60147400  0.25000000  0.71485400  1
  C  C41  1  0.89852600  0.25000000  0.21485400  1
  C  C42  1  0.39852600  0.75000000  0.28514600  1
  C  C43  1  0.10147400  0.75000000  0.78514600  1
  C  C44  1  0.60532000  0.25000000  0.56076600  1
  C  C45  1  0.89468000  0.25000000  0.06076600  1
  C  C46  1  0.39468000  0.75000000  0.43923400  1
  C  C47  1  0.10532000  0.75000000  0.93923400  1
  C  C48  1  0.32375700  0.25000000  0.75845400  1
  C  C49  1  0.17624300  0.25000000  0.25845400  1
  C  C50  1  0.67624300  0.75000000  0.24154600  1
  C  C51  1  0.82375700  0.75000000  0.74154600  1
  C  C52  1  0.42794800  0.42520900  0.67163000  1
  C  C53  1  0.07205200  0.07479100  0.17163000  1
  C  C54  1  0.57205200  0.92520900  0.32837000  1
  C  C55  1  0.92794800  0.57479100  0.82837000  1
  C  C56  1  0.57205200  0.57479100  0.32837000  1
  C  C57  1  0.92794800  0.92520900  0.82837000  1
  C  C58  1  0.42794800  0.07479100  0.67163000  1
  C  C59  1  0.07205200  0.42520900  0.17163000  1
  C  C60  1  0.33125900  0.36134600  0.53861200  1
  C  C61  1  0.16874100  0.13865400  0.03861200  1
  C  C62  1  0.66874100  0.86134600  0.46138800  1
  C  C63  1  0.83125900  0.63865400  0.96138800  1
  C  C64  1  0.66874100  0.63865400  0.46138800  1
  C  C65  1  0.83125900  0.86134600  0.96138800  1
  C  C66  1  0.33125900  0.13865400  0.53861200  1
  C  C67  1  0.16874100  0.36134600  0.03861200  1
  Ni  Ni68  1  0.79292800  0.25000000  0.25720500  1
  Ni  Ni69  1  0.70707200  0.25000000  0.75720500  1
  Ni  Ni70  1  0.20707200  0.75000000  0.74279500  1
  Ni  Ni71  1  0.29292800  0.75000000  0.24279500  1
  Ni  Ni72  1  0.71313000  0.25000000  0.51988000  1
  Ni  Ni73  1  0.78687000  0.25000000  0.01988000  1
  Ni  Ni74  1  0.28687000  0.75000000  0.48012000  1
  Ni  Ni75  1  0.21313000  0.75000000  0.98012000  1
  Ni  Ni76  1  0.21743100  0.25000000  0.32416800  1
  Ni  Ni77  1  0.28256900  0.25000000  0.82416800  1
  Ni  Ni78  1  0.78256900  0.75000000  0.67583200  1
  Ni  Ni79  1  0.71743100  0.75000000  0.17583200  1
  Ni  Ni80  1  0.02225900  0.25000000  0.63786900  1
  Ni  Ni81  1  0.47774100  0.25000000  0.13786900  1
  Ni  Ni82  1  0.97774100  0.75000000  0.36213100  1
  Ni  Ni83  1  0.52225900  0.75000000  0.86213100  1
  Ni  Ni84  1  0.55611100  0.48106000  0.30789100  1
  Ni  Ni85  1  0.94388900  0.01894000  0.80789100  1
  Ni  Ni86  1  0.44388900  0.98106000  0.69210900  1
  Ni  Ni87  1  0.05611100  0.51894000  0.19210900  1
  Ni  Ni88  1  0.44388900  0.51894000  0.69210900  1
  Ni  Ni89  1  0.05611100  0.98106000  0.19210900  1
  Ni  Ni90  1  0.55611100  0.01894000  0.30789100  1
  Ni  Ni91  1  0.94388900  0.48106000  0.80789100  1
  Ni  Ni92  1  0.28286800  0.42032200  0.48906000  1
  Ni  Ni93  1  0.21713200  0.07967800  0.98906000  1
  Ni  Ni94  1  0.71713200  0.92032200  0.51094000  1
  Ni  Ni95  1  0.78286800  0.57967800  0.01094000  1
  Ni  Ni96  1  0.71713200  0.57967800  0.51094000  1
  Ni  Ni97  1  0.78286800  0.92032200  0.01094000  1
  Ni  Ni98  1  0.28286800  0.07967800  0.48906000  1
  Ni  Ni99  1  0.21713200  0.42032200  0.98906000  1
  Cu  Cu100  1  0.91910600  0.05342900  0.38813800  1
  Cu  Cu101  1  0.58089400  0.44657100  0.88813800  1
  Cu  Cu102  1  0.08089400  0.55342900  0.61186200  1
  Cu  Cu103  1  0.41910600  0.94657100  0.11186200  1
  Cu  Cu104  1  0.08089400  0.94657100  0.61186200  1
  Cu  Cu105  1  0.41910600  0.55342900  0.11186200  1
  Cu  Cu106  1  0.91910600  0.44657100  0.38813800  1
  Cu  Cu107  1  0.58089400  0.05342900  0.88813800  1
