# generated using pymatgen
data_Cu11(NiC2)2
_symmetry_space_group_name_H-M   'P 1'
_cell_length_a   6.98685100
_cell_length_b   10.06292100
_cell_length_c   17.15021100
_cell_angle_alpha   90.00000000
_cell_angle_beta   90.00000000
_cell_angle_gamma   90.00000000
_symmetry_Int_Tables_number   1
_chemical_formula_structural   Cu11(NiC2)2
_chemical_formula_sum   'Cu44 Ni8 C16'
_cell_volume   1205.79925854
_cell_formula_units_Z   4
loop_
 _symmetry_equiv_pos_site_id
 _symmetry_equiv_pos_as_xyz
  1  'x, y, z'
loop_
 _atom_site_type_symbol
 _atom_site_label
 _atom_site_symmetry_multiplicity
 _atom_site_fract_x
 _atom_site_fract_y
 _atom_site_fract_z
 _atom_site_occupancy
  C  C0  1  0.75401000  0.62859300  0.01582800  1
  C  C1  1  0.25401000  0.37140700  0.98417200  1
  C  C2  1  0.25401000  0.87140700  0.51582800  1
  C  C3  1  0.75401000  0.12859300  0.48417200  1
  C  C4  1  0.25485700  0.69790000  0.79758100  1
  C  C5  1  0.75485700  0.30210000  0.20241900  1
  C  C6  1  0.75485700  0.80210000  0.29758100  1
  C  C7  1  0.25485700  0.19790000  0.70241900  1
  C  C8  1  0.75348300  0.95917600  0.86357400  1
  C  C9  1  0.25348300  0.04082400  0.13642600  1
  C  C10  1  0.25348300  0.54082400  0.36357400  1
  C  C11  1  0.75348300  0.45917600  0.63642600  1
  Ni  Ni12  1  0.86924300  0.97237600  0.67778500  1
  Ni  Ni13  1  0.36924300  0.02762400  0.32221500  1
  Ni  Ni14  1  0.36924300  0.52762400  0.17778500  1
  Ni  Ni15  1  0.86924300  0.47237600  0.82221500  1
  Ni  Ni16  1  0.64508600  0.97038500  0.67559900  1
  Ni  Ni17  1  0.14508600  0.02961500  0.32440100  1
  Ni  Ni18  1  0.14508600  0.52961500  0.17559900  1
  Ni  Ni19  1  0.64508600  0.47038500  0.82440100  1
  C  C20  1  0.76198900  0.96887300  0.08528000  1
  C  C21  1  0.26198900  0.03112700  0.91472000  1
  C  C22  1  0.26198900  0.53112700  0.58528000  1
  C  C23  1  0.76198900  0.46887300  0.41472000  1
  Cu  Cu24  1  0.74990500  0.13811200  0.87123700  1
  Cu  Cu25  1  0.24990500  0.86188800  0.12876300  1
  Cu  Cu26  1  0.24990500  0.36188800  0.37123700  1
  Cu  Cu27  1  0.74990500  0.63811200  0.62876300  1
  Cu  Cu28  1  0.75056200  0.77875800  0.85658500  1
  Cu  Cu29  1  0.25056200  0.22124200  0.14341500  1
  Cu  Cu30  1  0.25056200  0.72124200  0.35658500  1
  Cu  Cu31  1  0.75056200  0.27875800  0.64341500  1
  Cu  Cu32  1  0.56892400  0.97349800  0.74412000  1
  Cu  Cu33  1  0.06892400  0.02650200  0.25588000  1
  Cu  Cu34  1  0.06892400  0.52650200  0.24412000  1
  Cu  Cu35  1  0.56892400  0.47349800  0.75588000  1
  Cu  Cu36  1  0.92691000  0.06186900  0.09985200  1
  Cu  Cu37  1  0.42691000  0.93813100  0.90014800  1
  Cu  Cu38  1  0.42691000  0.43813100  0.59985200  1
  Cu  Cu39  1  0.92691000  0.56186900  0.40014800  1
  Cu  Cu40  1  0.58637700  0.04845700  0.10226200  1
  Cu  Cu41  1  0.08637700  0.95154300  0.89773800  1
  Cu  Cu42  1  0.08637700  0.45154300  0.60226200  1
  Cu  Cu43  1  0.58637700  0.54845700  0.39773800  1
  Cu  Cu44  1  0.93878800  0.96075700  0.74709500  1
  Cu  Cu45  1  0.43878800  0.03924300  0.25290500  1
  Cu  Cu46  1  0.43878800  0.53924300  0.24709500  1
  Cu  Cu47  1  0.93878800  0.46075700  0.75290500  1
  Cu  Cu48  1  0.76293400  0.93077800  0.00107800  1
  Cu  Cu49  1  0.26293400  0.06922200  0.99892200  1
  Cu  Cu50  1  0.26293400  0.56922200  0.50107800  1
  Cu  Cu51  1  0.76293400  0.43077800  0.49892200  1
  Cu  Cu52  1  0.77531100  0.84959600  0.13332200  1
  Cu  Cu53  1  0.27531100  0.15040400  0.86667800  1
  Cu  Cu54  1  0.27531100  0.65040400  0.63332200  1
  Cu  Cu55  1  0.77531100  0.34959600  0.36667800  1
  Cu  Cu56  1  0.32724300  0.68187400  0.98708500  1
  Cu  Cu57  1  0.82724300  0.31812600  0.01291500  1
  Cu  Cu58  1  0.82724300  0.81812600  0.48708500  1
  Cu  Cu59  1  0.32724300  0.18187400  0.51291500  1
  Cu  Cu60  1  0.96513600  0.99006100  0.61758200  1
  Cu  Cu61  1  0.46513600  0.00993900  0.38241800  1
  Cu  Cu62  1  0.46513600  0.50993900  0.11758200  1
  Cu  Cu63  1  0.96513600  0.49006100  0.88241800  1
  Cu  Cu64  1  0.55824200  0.97100600  0.61233900  1
  Cu  Cu65  1  0.05824200  0.02899400  0.38766100  1
  Cu  Cu66  1  0.05824200  0.52899400  0.11233900  1
  Cu  Cu67  1  0.55824200  0.47100600  0.88766100  1
