# generated using pymatgen
data_CuNiC11
_symmetry_space_group_name_H-M   'P 1'
_cell_length_a   5.20766410
_cell_length_b   11.25792500
_cell_length_c   11.25722219
_cell_angle_alpha   102.82497231
_cell_angle_beta   91.60988775
_cell_angle_gamma   88.38661057
_symmetry_Int_Tables_number   1
_chemical_formula_structural   CuNiC11
_chemical_formula_sum   'Cu4 Ni4 C44'
_cell_volume   643.10122230
_cell_formula_units_Z   4
loop_
 _symmetry_equiv_pos_site_id
 _symmetry_equiv_pos_as_xyz
  1  'x, y, z'
loop_
 _atom_site_type_symbol
 _atom_site_label
 _atom_site_symmetry_multiplicity
 _atom_site_fract_x
 _atom_site_fract_y
 _atom_site_fract_z
 _atom_site_occupancy
  C  C0  1  0.76741400  0.16479400  0.08517200  1
  C  C1  1  0.76742000  0.66474100  0.58521200  1
  C  C2  1  0.23250600  0.83516700  0.91476100  1
  C  C3  1  0.23256400  0.33515300  0.41477200  1
  C  C4  1  0.25656900  0.13466300  0.87347300  1
  C  C5  1  0.25651700  0.63462900  0.37345600  1
  C  C6  1  0.25645200  0.37652100  0.11535000  1
  C  C7  1  0.25664200  0.87649000  0.61525400  1
  C  C8  1  0.74362700  0.62341300  0.88459800  1
  C  C9  1  0.74337000  0.12338800  0.38467500  1
  C  C10  1  0.74337600  0.86527500  0.12649800  1
  C  C11  1  0.74356600  0.36525200  0.62650200  1
  C  C12  1  0.78137400  0.04450900  0.70553100  1
  C  C13  1  0.21838000  0.95549500  0.29440800  1
  C  C14  1  0.78170700  0.54453600  0.20580100  1
  C  C15  1  0.21855600  0.45557800  0.79446600  1
  Ni  Ni16  1  0.72492500  0.40891100  0.34114600  1
  Ni  Ni17  1  0.72491300  0.90892200  0.84107000  1
  Ni  Ni18  1  0.27509700  0.59108000  0.65887600  1
  Ni  Ni19  1  0.27502300  0.09106600  0.15891400  1
  Cu  Cu20  1  0.72318600  0.33420400  0.91586100  1
  Cu  Cu21  1  0.72313700  0.83412200  0.41590500  1
  Cu  Cu22  1  0.27691800  0.66590000  0.08417000  1
  Cu  Cu23  1  0.27679900  0.16588800  0.58413000  1
  C  C24  1  0.30627300  0.16628000  0.08376600  1
  C  C25  1  0.30630700  0.66627500  0.58370900  1
  C  C26  1  0.69365900  0.83371100  0.91623500  1
  C  C27  1  0.69377100  0.33367500  0.41626600  1
  C  C28  1  0.96340700  0.44426600  0.30586000  1
  C  C29  1  0.96334200  0.94422500  0.80577200  1
  C  C30  1  0.03664000  0.55581100  0.69422100  1
  C  C31  1  0.03654000  0.05576500  0.19420500  1
  C  C32  1  0.52525100  0.46535700  0.28479800  1
  C  C33  1  0.52514800  0.96534500  0.78472300  1
  C  C34  1  0.47484300  0.53466500  0.71523500  1
  C  C35  1  0.47476900  0.03464600  0.21524800  1
  C  C36  1  0.42765000  0.35737500  0.89251800  1
  C  C37  1  0.42761300  0.85732000  0.39255300  1
  C  C38  1  0.57238800  0.64271400  0.10751200  1
  C  C39  1  0.57234600  0.14266200  0.60740300  1
  C  C40  1  0.12607300  0.59109600  0.15888800  1
  C  C41  1  0.12604400  0.09106600  0.65885200  1
  C  C42  1  0.87405300  0.40899300  0.84108500  1
  C  C43  1  0.87391700  0.90892100  0.34113400  1
  C  C44  1  0.78600700  0.19632200  0.87576700  1
  C  C45  1  0.78607000  0.69624800  0.37579500  1
  C  C46  1  0.78572700  0.37424800  0.05376300  1
  C  C47  1  0.78572600  0.87420000  0.55378500  1
  C  C48  1  0.21432700  0.62581400  0.94626600  1
  C  C49  1  0.21422400  0.12577300  0.44621800  1
  C  C50  1  0.21390400  0.80376200  0.12422300  1
  C  C51  1  0.21394700  0.30376800  0.62420200  1
