# generated using pymatgen
data_Cu3NiC37
_symmetry_space_group_name_H-M   'P 1'
_cell_length_a   8.78494065
_cell_length_b   8.78494065
_cell_length_c   8.78494041
_cell_angle_alpha   60.34894014
_cell_angle_beta   60.34894014
_cell_angle_gamma   60.34894294
_symmetry_Int_Tables_number   1
_chemical_formula_structural   Cu3NiC37
_chemical_formula_sum   'Cu3 Ni1 C37'
_cell_volume   483.18811950
_cell_formula_units_Z   1
loop_
 _symmetry_equiv_pos_site_id
 _symmetry_equiv_pos_as_xyz
  1  'x, y, z'
loop_
 _atom_site_type_symbol
 _atom_site_label
 _atom_site_symmetry_multiplicity
 _atom_site_fract_x
 _atom_site_fract_y
 _atom_site_fract_z
 _atom_site_occupancy
  C  C0  1  0.70639600  0.34572700  0.16382300  1
  C  C1  1  0.16382300  0.70639600  0.34572700  1
  C  C2  1  0.34572700  0.16382300  0.70639600  1
  C  C3  1  0.52050200  0.52050200  0.52050200  1
  C  C4  1  0.75547500  0.93951600  0.19744600  1
  C  C5  1  0.93951600  0.19744600  0.75547500  1
  C  C6  1  0.19744600  0.75547500  0.93951600  1
  Ni  Ni7  1  0.85532200  0.85532200  0.85532200  1
  Cu  Cu8  1  0.34828700  0.34828700  0.34828700  1
  Cu  Cu9  1  0.14603700  0.14603700  0.14603700  1
  Cu  Cu10  1  0.64674400  0.64674400  0.64674400  1
  C  C11  1  0.46187300  0.74943900  0.04270500  1
  C  C12  1  0.74943900  0.04270500  0.46187300  1
  C  C13  1  0.04270500  0.46187300  0.74943900  1
  C  C14  1  0.95380700  0.54656200  0.24785300  1
  C  C15  1  0.24785300  0.95380700  0.54656200  1
  C  C16  1  0.54656200  0.24785300  0.95380700  1
  C  C17  1  0.26465100  0.89645800  0.09274900  1
  C  C18  1  0.62183800  0.80290400  0.99900300  1
  C  C19  1  0.46186000  0.57060800  0.21452300  1
  C  C20  1  0.72383400  0.87283200  0.47118900  1
  C  C21  1  0.89645800  0.09274900  0.26465100  1
  C  C22  1  0.57060800  0.21452300  0.46186000  1
  C  C23  1  0.87283200  0.47118900  0.72383400  1
  C  C24  1  0.21452300  0.46186000  0.57060800  1
  C  C25  1  0.99450800  0.38594000  0.19363300  1
  C  C26  1  0.92996300  0.73755000  0.08418800  1
  C  C27  1  0.47118900  0.72383400  0.87283200  1
  C  C28  1  0.19363300  0.99450800  0.38594000  1
  C  C29  1  0.80290400  0.99900300  0.62183800  1
  C  C30  1  0.53540400  0.28091600  0.11551600  1
  C  C31  1  0.09274900  0.26465100  0.89645800  1
  C  C32  1  0.99900300  0.62183800  0.80290400  1
  C  C33  1  0.77116800  0.56289900  0.41570700  1
  C  C34  1  0.11551600  0.53540400  0.28091600  1
  C  C35  1  0.41570700  0.77116800  0.56289900  1
  C  C36  1  0.08418800  0.92996300  0.73755000  1
  C  C37  1  0.28091600  0.11551600  0.53540400  1
  C  C38  1  0.38594000  0.19363300  0.99450800  1
  C  C39  1  0.56289900  0.41570700  0.77116800  1
  C  C40  1  0.73755000  0.08418800  0.92996300  1
