# generated using pymatgen
data_Cu2Ni2C11
_symmetry_space_group_name_H-M   'P 1'
_cell_length_a   11.31618700
_cell_length_b   5.17400700
_cell_length_c   6.10516468
_cell_angle_alpha   88.82778425
_cell_angle_beta   90.00000000
_cell_angle_gamma   90.00000000
_symmetry_Int_Tables_number   1
_chemical_formula_structural   Cu2Ni2C11
_chemical_formula_sum   'Cu4 Ni4 C22'
_cell_volume   357.38277155
_cell_formula_units_Z   2
loop_
 _symmetry_equiv_pos_site_id
 _symmetry_equiv_pos_as_xyz
  1  'x, y, z'
loop_
 _atom_site_type_symbol
 _atom_site_label
 _atom_site_symmetry_multiplicity
 _atom_site_fract_x
 _atom_site_fract_y
 _atom_site_fract_z
 _atom_site_occupancy
  C  C0  1  0.83415100  0.55196400  0.75760900  1
  C  C1  1  0.33415100  0.44803600  0.24239100  1
  C  C2  1  0.17182900  0.96184800  0.24139900  1
  C  C3  1  0.66965800  0.05242500  0.24294300  1
  C  C4  1  0.67182900  0.03815200  0.75860100  1
  C  C5  1  0.16965800  0.94757500  0.75705700  1
  Ni  Ni6  1  0.57322200  0.43863900  0.50048000  1
  Ni  Ni7  1  0.07322200  0.56136100  0.49952000  1
  Ni  Ni8  1  0.42428500  0.06769700  0.97389600  1
  Ni  Ni9  1  0.92428500  0.93230300  0.02610400  1
  Cu  Cu10  1  0.40928500  0.93675500  0.49169700  1
  Cu  Cu11  1  0.90928500  0.06324500  0.50830300  1
  Cu  Cu12  1  0.58489700  0.56489800  0.00516700  1
  Cu  Cu13  1  0.08489700  0.43510200  0.99483300  1
  C  C14  1  0.83806300  0.95182900  0.72478200  1
  C  C15  1  0.33351200  0.99295300  0.70986000  1
  C  C16  1  0.93377400  0.37689400  0.53380800  1
  C  C17  1  0.54530200  0.06953800  0.50921600  1
  C  C18  1  0.43377400  0.62310600  0.46619200  1
  C  C19  1  0.04530200  0.93046200  0.49078400  1
  C  C20  1  0.83351200  0.00704700  0.29014000  1
  C  C21  1  0.33806300  0.04817100  0.27521800  1
  C  C22  1  0.15701100  0.53592600  0.22248300  1
  C  C23  1  0.65334500  0.45080800  0.22794700  1
  C  C24  1  0.45112800  0.45369600  0.00419600  1
  C  C25  1  0.95112800  0.54630400  0.99580400  1
  C  C26  1  0.58917900  0.88331200  0.00422100  1
  C  C27  1  0.08917900  0.11668800  0.99577900  1
  C  C28  1  0.65701100  0.46407400  0.77751700  1
  C  C29  1  0.15334500  0.54919200  0.77205300  1
