# generated using pymatgen
data_Cu6Ni6C29
_symmetry_space_group_name_H-M   'P 1'
_cell_length_a   13.58248740
_cell_length_b   13.58248740
_cell_length_c   13.58248737
_cell_angle_alpha   41.08979427
_cell_angle_beta   41.08979427
_cell_angle_gamma   41.08979300
_symmetry_Int_Tables_number   1
_chemical_formula_structural   Cu6Ni6C29
_chemical_formula_sum   'Cu12 Ni12 C58'
_cell_volume   977.33891575
_cell_formula_units_Z   2
loop_
 _symmetry_equiv_pos_site_id
 _symmetry_equiv_pos_as_xyz
  1  'x, y, z'
loop_
 _atom_site_type_symbol
 _atom_site_label
 _atom_site_symmetry_multiplicity
 _atom_site_fract_x
 _atom_site_fract_y
 _atom_site_fract_z
 _atom_site_occupancy
  C  C0  1  0.75000000  0.16081000  0.33919000  1
  C  C1  1  0.66081000  0.25000000  0.83919000  1
  C  C2  1  0.83919000  0.66081000  0.25000000  1
  C  C3  1  0.16081000  0.33919000  0.75000000  1
  C  C4  1  0.33919000  0.75000000  0.16081000  1
  C  C5  1  0.25000000  0.83919000  0.66081000  1
  C  C6  1  0.25000000  0.25000000  0.25000000  1
  C  C7  1  0.00000000  0.00000000  0.00000000  1
  C  C8  1  0.50000000  0.50000000  0.50000000  1
  C  C9  1  0.75000000  0.75000000  0.75000000  1
  Ni  Ni10  1  0.60205300  0.04676900  0.25538500  1
  Ni  Ni11  1  0.04676900  0.25538500  0.60205300  1
  Ni  Ni12  1  0.89794700  0.24461500  0.45323100  1
  Ni  Ni13  1  0.25538500  0.60205300  0.04676900  1
  Ni  Ni14  1  0.54676900  0.10205300  0.75538500  1
  Ni  Ni15  1  0.75538500  0.54676900  0.10205300  1
  Ni  Ni16  1  0.24461500  0.45323100  0.89794700  1
  Ni  Ni17  1  0.45323100  0.89794700  0.24461500  1
  Ni  Ni18  1  0.10205300  0.75538500  0.54676900  1
  Ni  Ni19  1  0.74461500  0.39794700  0.95323100  1
  Ni  Ni20  1  0.95323100  0.74461500  0.39794700  1
  Ni  Ni21  1  0.39794700  0.95323100  0.74461500  1
  Cu  Cu22  1  0.98614600  0.06541600  0.39075200  1
  Cu  Cu23  1  0.60924800  0.01385400  0.93458400  1
  Cu  Cu24  1  0.51385400  0.10924800  0.43458400  1
  Cu  Cu25  1  0.93458400  0.60924800  0.01385400  1
  Cu  Cu26  1  0.89075200  0.56541600  0.48614600  1
  Cu  Cu27  1  0.56541600  0.48614600  0.89075200  1
  Cu  Cu28  1  0.43458400  0.51385400  0.10924800  1
  Cu  Cu29  1  0.06541600  0.39075200  0.98614600  1
  Cu  Cu30  1  0.10924800  0.43458400  0.51385400  1
  Cu  Cu31  1  0.48614600  0.89075200  0.56541600  1
  Cu  Cu32  1  0.39075200  0.98614600  0.06541600  1
  Cu  Cu33  1  0.01385400  0.93458400  0.60924800  1
  C  C34  1  0.78050500  0.00050400  0.11657100  1
  C  C35  1  0.48210200  0.18919700  0.17315500  1
  C  C36  1  0.31080300  0.01789800  0.32684500  1
  C  C37  1  0.32684500  0.31080300  0.01789800  1
  C  C38  1  0.18919700  0.17315500  0.48210200  1
  C  C39  1  0.00050400  0.11657100  0.78050500  1
  C  C40  1  0.93803900  0.09833300  0.60437200  1
  C  C41  1  0.90279800  0.18192900  0.38695600  1
  C  C42  1  0.01789800  0.32684500  0.31080300  1
  C  C43  1  0.17315500  0.48210200  0.18919700  1
  C  C44  1  0.61304400  0.09720200  0.81807100  1
  C  C45  1  0.90166700  0.39562800  0.06196100  1
  C  C46  1  0.89562800  0.40166700  0.56196100  1
  C  C47  1  0.59720200  0.11304400  0.31807100  1
  C  C48  1  0.71949500  0.38342900  0.49949600  1
  C  C49  1  0.11657100  0.78050500  0.00050400  1
  C  C50  1  0.43803900  0.10437200  0.59833300  1
  C  C51  1  0.39562800  0.06196100  0.90166700  1
  C  C52  1  0.68192900  0.40279800  0.88695600  1
  C  C53  1  0.50050400  0.28050500  0.61657100  1
  C  C54  1  0.88695600  0.68192900  0.40279800  1
  C  C55  1  0.81807100  0.61304400  0.09720200  1
  C  C56  1  0.59833300  0.43803900  0.10437200  1
  C  C57  1  0.61657100  0.50050400  0.28050500  1
  C  C58  1  0.38342900  0.49949600  0.71949500  1
  C  C59  1  0.40166700  0.56196100  0.89562800  1
  C  C60  1  0.18192900  0.38695600  0.90279800  1
  C  C61  1  0.11304400  0.31807100  0.59720200  1
  C  C62  1  0.49949600  0.71949500  0.38342900  1
  C  C63  1  0.31807100  0.59720200  0.11304400  1
  C  C64  1  0.56196100  0.89562800  0.40166700  1
  C  C65  1  0.60437200  0.93803900  0.09833300  1
  C  C66  1  0.88342900  0.21949500  0.99949600  1
  C  C67  1  0.28050500  0.61657100  0.50050400  1
  C  C68  1  0.40279800  0.88695600  0.68192900  1
  C  C69  1  0.10437200  0.59833300  0.43803900  1
  C  C70  1  0.09833300  0.60437200  0.93803900  1
  C  C71  1  0.38695600  0.90279800  0.18192900  1
  C  C72  1  0.98210200  0.67315500  0.68919700  1
  C  C73  1  0.82684500  0.51789800  0.81080300  1
  C  C74  1  0.09720200  0.81807100  0.61304400  1
  C  C75  1  0.06196100  0.90166700  0.39562800  1
  C  C76  1  0.99949600  0.88342900  0.21949500  1
  C  C77  1  0.81080300  0.82684500  0.51789800  1
  C  C78  1  0.67315500  0.68919700  0.98210200  1
  C  C79  1  0.51789800  0.81080300  0.82684500  1
  C  C80  1  0.68919700  0.98210200  0.67315500  1
  C  C81  1  0.21949500  0.99949600  0.88342900  1
