# generated using pymatgen
data_Cu(NiC4)3
_symmetry_space_group_name_H-M   'P 1'
_cell_length_a   5.93702809
_cell_length_b   5.93702809
_cell_length_c   5.93702843
_cell_angle_alpha   59.39989959
_cell_angle_beta   59.39989959
_cell_angle_gamma   59.39991042
_symmetry_Int_Tables_number   1
_chemical_formula_structural   Cu(NiC4)3
_chemical_formula_sum   'Cu1 Ni3 C12'
_cell_volume   145.95558368
_cell_formula_units_Z   1
loop_
 _symmetry_equiv_pos_site_id
 _symmetry_equiv_pos_as_xyz
  1  'x, y, z'
loop_
 _atom_site_type_symbol
 _atom_site_label
 _atom_site_symmetry_multiplicity
 _atom_site_fract_x
 _atom_site_fract_y
 _atom_site_fract_z
 _atom_site_occupancy
  C  C0  1  0.50000000  0.50000000  0.50000000  1
  C  C1  1  0.00000000  0.00000000  0.50000000  1
  C  C2  1  0.50000000  0.00000000  0.00000000  1
  C  C3  1  0.00000000  0.50000000  0.00000000  1
  Ni  Ni4  1  0.50000000  0.50000000  0.00000000  1
  Ni  Ni5  1  0.00000000  0.50000000  0.50000000  1
  Ni  Ni6  1  0.50000000  0.00000000  0.50000000  1
  Cu  Cu7  1  0.00000000  0.00000000  0.00000000  1
  C  C8  1  0.25672100  0.25672100  0.25672100  1
  C  C9  1  0.76215700  0.76215700  0.24852200  1
  C  C10  1  0.24852200  0.76215700  0.76215700  1
  C  C11  1  0.74327900  0.74327900  0.74327900  1
  C  C12  1  0.76215700  0.24852200  0.76215700  1
  C  C13  1  0.23784300  0.23784300  0.75147800  1
  C  C14  1  0.75147800  0.23784300  0.23784300  1
  C  C15  1  0.23784300  0.75147800  0.23784300  1
