# generated using pymatgen
data_CuNi11C17
_symmetry_space_group_name_H-M   'P 1'
_cell_length_a   5.65565048
_cell_length_b   5.65565048
_cell_length_c   22.79221900
_cell_angle_alpha   90.00000000
_cell_angle_beta   90.00000000
_cell_angle_gamma   120.04000854
_symmetry_Int_Tables_number   1
_chemical_formula_structural   CuNi11C17
_chemical_formula_sum   'Cu2 Ni22 C34'
_cell_volume   631.11301589
_cell_formula_units_Z   2
loop_
 _symmetry_equiv_pos_site_id
 _symmetry_equiv_pos_as_xyz
  1  'x, y, z'
loop_
 _atom_site_type_symbol
 _atom_site_label
 _atom_site_symmetry_multiplicity
 _atom_site_fract_x
 _atom_site_fract_y
 _atom_site_fract_z
 _atom_site_occupancy
  Ni  Ni0  1  0.66708300  0.33291700  0.39455900  1
  Ni  Ni1  1  0.66708300  0.33291700  0.10544100  1
  Ni  Ni2  1  0.83230600  0.16769400  0.67551000  1
  Ni  Ni3  1  0.83313500  0.16686500  0.52477400  1
  Ni  Ni4  1  0.83230600  0.16769400  0.82449000  1
  Ni  Ni5  1  0.66904800  0.83536000  0.10774700  1
  Ni  Ni6  1  0.50000000  0.50000000  0.50000000  1
  Ni  Ni7  1  0.50000000  0.50000000  0.00000000  1
  Ni  Ni8  1  0.83313500  0.16686500  0.97522600  1
  Ni  Ni9  1  0.66904800  0.83536000  0.39225300  1
  Ni  Ni10  1  0.83536000  0.66904800  0.60774700  1
  Ni  Ni11  1  0.83536000  0.66904800  0.89225300  1
  Ni  Ni12  1  0.16464000  0.33095200  0.10774700  1
  Ni  Ni13  1  0.16464000  0.33095200  0.39225300  1
  Ni  Ni14  1  0.16769400  0.83230600  0.17551000  1
  Ni  Ni15  1  0.33095200  0.16464000  0.89225300  1
  Ni  Ni16  1  0.33095200  0.16464000  0.60774700  1
  Ni  Ni17  1  0.16686500  0.83313500  0.47522600  1
  Ni  Ni18  1  0.16769400  0.83230600  0.32449000  1
  Ni  Ni19  1  0.16686500  0.83313500  0.02477400  1
  Ni  Ni20  1  0.33291700  0.66708300  0.89455900  1
  Ni  Ni21  1  0.33291700  0.66708300  0.60544100  1
  Cu  Cu22  1  0.74277100  0.25722900  0.25000000  1
  Cu  Cu23  1  0.25722900  0.74277100  0.75000000  1
  C  C24  1  0.65737900  0.34262100  0.55016000  1
  C  C25  1  0.65737900  0.34262100  0.94984000  1
  C  C26  1  0.50756100  0.00589200  0.14579600  1
  C  C27  1  0.50756100  0.00589200  0.35420400  1
  C  C28  1  0.81919900  0.18080100  0.75000000  1
  C  C29  1  0.83390300  0.16609700  0.05550700  1
  C  C30  1  0.65610500  0.81436100  0.54951100  1
  C  C31  1  0.99410800  0.49243900  0.14579600  1
  C  C32  1  0.49923500  0.50076500  0.64141000  1
  C  C33  1  0.65610500  0.81436100  0.95048900  1
  C  C34  1  0.49923500  0.50076500  0.85859000  1
  C  C35  1  0.50076500  0.49923500  0.14141000  1
  C  C36  1  0.50076500  0.49923500  0.35859000  1
  C  C37  1  0.83390300  0.16609700  0.44449300  1
  C  C38  1  0.99410800  0.49243900  0.35420400  1
  C  C39  1  0.81436100  0.65610500  0.04951100  1
  C  C40  1  0.81436100  0.65610500  0.45048900  1
  C  C41  1  0.99936300  0.00063700  0.14540400  1
  C  C42  1  0.99936300  0.00063700  0.35459600  1
  C  C43  1  0.00063700  0.99936300  0.85459600  1
  C  C44  1  0.00063700  0.99936300  0.64540400  1
  C  C45  1  0.18563900  0.34389500  0.54951100  1
  C  C46  1  0.18563900  0.34389500  0.95048900  1
  C  C47  1  0.16609700  0.83390300  0.94449300  1
  C  C48  1  0.00589200  0.50756100  0.64579600  1
  C  C49  1  0.00589200  0.50756100  0.85420400  1
  C  C50  1  0.34389500  0.18563900  0.04951100  1
  C  C51  1  0.34389500  0.18563900  0.45048900  1
  C  C52  1  0.16609700  0.83390300  0.55550700  1
  C  C53  1  0.18080100  0.81919900  0.25000000  1
  C  C54  1  0.49243900  0.99410800  0.64579600  1
  C  C55  1  0.49243900  0.99410800  0.85420400  1
  C  C56  1  0.34262100  0.65737900  0.44984000  1
  C  C57  1  0.34262100  0.65737900  0.05016000  1
