# generated using pymatgen
data_Cu3NiC
_symmetry_space_group_name_H-M   'P 1'
_cell_length_a   5.58808600
_cell_length_b   7.50181200
_cell_length_c   9.48439358
_cell_angle_alpha   67.28262488
_cell_angle_beta   90.00000000
_cell_angle_gamma   90.00000000
_symmetry_Int_Tables_number   1
_chemical_formula_structural   Cu3NiC
_chemical_formula_sum   'Cu12 Ni4 C4'
_cell_volume   366.74822146
_cell_formula_units_Z   4
loop_
 _symmetry_equiv_pos_site_id
 _symmetry_equiv_pos_as_xyz
  1  'x, y, z'
loop_
 _atom_site_type_symbol
 _atom_site_label
 _atom_site_symmetry_multiplicity
 _atom_site_fract_x
 _atom_site_fract_y
 _atom_site_fract_z
 _atom_site_occupancy
  C  C0  1  0.07479900  0.68975100  0.50614700  1
  C  C1  1  0.57479900  0.31024900  0.99385300  1
  C  C2  1  0.42520100  0.68975100  0.00614700  1
  C  C3  1  0.92520100  0.31024900  0.49385300  1
  Ni  Ni4  1  0.27435700  0.46265300  0.99036600  1
  Ni  Ni5  1  0.77435700  0.53734700  0.50963400  1
  Ni  Ni6  1  0.22564300  0.46265300  0.49036600  1
  Ni  Ni7  1  0.72564300  0.53734700  0.00963400  1
  Cu  Cu8  1  0.53342500  0.90519100  0.83709800  1
  Cu  Cu9  1  0.96657500  0.90519100  0.33709800  1
  Cu  Cu10  1  0.36348300  0.82083400  0.50961000  1
  Cu  Cu11  1  0.99074700  0.69786100  0.69670200  1
  Cu  Cu12  1  0.13651700  0.82083400  0.00961000  1
  Cu  Cu13  1  0.50925300  0.69786100  0.19670200  1
  Cu  Cu14  1  0.49074700  0.30213900  0.80329800  1
  Cu  Cu15  1  0.86348300  0.17916600  0.99039000  1
  Cu  Cu16  1  0.00925300  0.30213900  0.30329800  1
  Cu  Cu17  1  0.63651700  0.17916600  0.49039000  1
  Cu  Cu18  1  0.03342500  0.09480900  0.66290200  1
  Cu  Cu19  1  0.46657500  0.09480900  0.16290200  1
