# generated using pymatgen
data_Cu3(NiC6)2
_symmetry_space_group_name_H-M   'P 1'
_cell_length_a   9.52468800
_cell_length_b   16.18367200
_cell_length_c   16.24305093
_cell_angle_alpha   70.92179498
_cell_angle_beta   90.00000000
_cell_angle_gamma   90.00000000
_symmetry_Int_Tables_number   1
_chemical_formula_structural   Cu3(NiC6)2
_chemical_formula_sum   'Cu24 Ni16 C96'
_cell_volume   2366.25166892
_cell_formula_units_Z   8
loop_
 _symmetry_equiv_pos_site_id
 _symmetry_equiv_pos_as_xyz
  1  'x, y, z'
loop_
 _atom_site_type_symbol
 _atom_site_label
 _atom_site_symmetry_multiplicity
 _atom_site_fract_x
 _atom_site_fract_y
 _atom_site_fract_z
 _atom_site_occupancy
  Ni  Ni0  1  0.03213900  0.31426600  0.56995900  1
  Ni  Ni1  1  0.96875500  0.56542600  0.81509600  1
  Ni  Ni2  1  0.03124900  0.93449700  0.68337700  1
  Ni  Ni3  1  0.53124500  0.06542600  0.81509600  1
  Ni  Ni4  1  0.03436600  0.81870600  0.06057500  1
  Ni  Ni5  1  0.46875500  0.93457400  0.18490400  1
  Ni  Ni6  1  0.46563400  0.31870600  0.06057500  1
  Ni  Ni7  1  0.96563400  0.18129400  0.93942500  1
  Ni  Ni8  1  0.96875100  0.06550300  0.31662300  1
  Ni  Ni9  1  0.03124500  0.43457400  0.18490400  1
  Ni  Ni10  1  0.53436600  0.68129400  0.93942500  1
  Ni  Ni11  1  0.46875100  0.43449700  0.68337700  1
  Ni  Ni12  1  0.96786100  0.68573400  0.43004100  1
  Ni  Ni13  1  0.46786100  0.81426600  0.56995900  1
  Ni  Ni14  1  0.53124900  0.56550300  0.31662300  1
  Ni  Ni15  1  0.53213900  0.18573400  0.43004100  1
  Cu  Cu16  1  0.25353000  0.01537100  0.98213200  1
  Cu  Cu17  1  0.38079700  0.87203600  0.77186700  1
  Cu  Cu18  1  0.38547500  0.23210800  0.61987500  1
  Cu  Cu19  1  0.38988600  0.37803900  0.26421800  1
  Cu  Cu20  1  0.75353000  0.48462900  0.01786800  1
  Cu  Cu21  1  0.24647000  0.51537100  0.98213200  1
  Cu  Cu22  1  0.74569900  0.98951500  0.51317800  1
  Cu  Cu23  1  0.61985200  0.27059100  0.87376700  1
  Cu  Cu24  1  0.61920300  0.12796400  0.22813300  1
  Cu  Cu25  1  0.61011400  0.62196100  0.73578200  1
  Cu  Cu26  1  0.38014800  0.72940900  0.12623300  1
  Cu  Cu27  1  0.88014800  0.77059100  0.87376700  1
  Cu  Cu28  1  0.88988600  0.12196100  0.73578200  1
  Cu  Cu29  1  0.11011400  0.87803900  0.26421800  1
  Cu  Cu30  1  0.24569900  0.51048500  0.48682200  1
  Cu  Cu31  1  0.88547500  0.26789200  0.38012500  1
  Cu  Cu32  1  0.11452500  0.73210800  0.61987500  1
  Cu  Cu33  1  0.88079700  0.62796400  0.22813300  1
  Cu  Cu34  1  0.74647000  0.98462900  0.01786800  1
  Cu  Cu35  1  0.75430100  0.48951500  0.51317800  1
  Cu  Cu36  1  0.61452500  0.76789200  0.38012500  1
  Cu  Cu37  1  0.25430100  0.01048500  0.48682200  1
  Cu  Cu38  1  0.11920300  0.37203600  0.77186700  1
  Cu  Cu39  1  0.11985200  0.22940900  0.12623300  1
  C  C40  1  0.06248900  0.86466900  0.16261000  1
  C  C41  1  0.42874300  0.13437500  0.70632300  1
  C  C42  1  0.36280100  0.53721600  0.39564400  1
  C  C43  1  0.48117600  0.23404400  0.52400600  1
  C  C44  1  0.37947400  0.59310400  0.98381100  1
  C  C45  1  0.32414200  0.41162000  0.99120800  1
  C  C46  1  0.63073800  0.99681100  0.92754100  1
  C  C47  1  0.49601900  0.54334000  0.71445100  1
  C  C48  1  0.30151500  0.73326500  0.60425600  1
  C  C49  1  0.43751100  0.36466900  0.16261000  1
  C  C50  1  0.00836100  0.22613900  0.03806500  1
  C  C51  1  0.80151500  0.76673500  0.39574400  1
  C  C52  1  0.13719900  0.03721600  0.39564400  1
  C  C53  1  0.43518100  0.32492600  0.64995900  1
  C  C54  1  0.90433500  0.86726100  0.78177300  1
  C  C55  1  0.66479600  0.09250100  0.50394300  1
  C  C56  1  0.07125700  0.63437500  0.70632300  1
  C  C57  1  0.34101000  0.50038200  0.58491800  1
  C  C58  1  0.82414200  0.08838000  0.00879200  1
  C  C59  1  0.16479600  0.40749900  0.49605700  1
  C  C60  1  0.48847700  0.95539000  0.78999500  1
  C  C61  1  0.84101000  0.99961800  0.41508200  1
  C  C62  1  0.28804900  0.91604300  0.25498900  1
  C  C63  1  0.07529500  0.32344500  0.15532600  1
  C  C64  1  0.50398100  0.45666000  0.28554900  1
  C  C65  1  0.99601900  0.95666000  0.28554900  1
  C  C66  1  0.67585800  0.58838000  0.00879200  1
  C  C67  1  0.17585800  0.91162000  0.99120800  1
  C  C68  1  0.13073800  0.50318900  0.07245900  1
  C  C69  1  0.61920100  0.90451800  0.52802700  1
  C  C70  1  0.86280100  0.96278400  0.60435600  1
  C  C71  1  0.19848500  0.23326500  0.60425600  1
  C  C72  1  0.63719900  0.46278400  0.60435600  1
  C  C73  1  0.06865000  0.36009100  0.67048400  1
  C  C74  1  0.59566500  0.36726100  0.78177300  1
  C  C75  1  0.30125900  0.40175400  0.76497500  1
  C  C76  1  0.56865000  0.13990900  0.32951600  1
  C  C77  1  0.56248900  0.63533100  0.83739000  1
  C  C78  1  0.93751100  0.13533100  0.83739000  1
  C  C79  1  0.59736800  0.72523800  0.65021000  1
  C  C80  1  0.88079900  0.40451800  0.52802700  1
  C  C81  1  0.57529500  0.17655500  0.84467400  1
  C  C82  1  0.00398100  0.04334000  0.71445100  1
  C  C83  1  0.15179700  0.55399300  0.88156800  1
  C  C84  1  0.93135000  0.63990900  0.32951600  1
  C  C85  1  0.84820300  0.44600700  0.11843200  1
  C  C86  1  0.69874100  0.59824600  0.23502500  1
  C  C87  1  0.15899000  0.00038200  0.58491800  1
  C  C88  1  0.57125700  0.86562500  0.29367700  1
  C  C89  1  0.21195100  0.41604300  0.25498900  1
  C  C90  1  0.65899000  0.49961800  0.41508200  1
  C  C91  1  0.69777700  0.76550600  0.90319100  1
  C  C92  1  0.80125900  0.09824600  0.23502500  1
  C  C93  1  0.71195100  0.08395700  0.74501100  1
  C  C94  1  0.93518100  0.17507400  0.35004100  1
  C  C95  1  0.33520400  0.90749900  0.49605700  1
  C  C96  1  0.30222300  0.23449400  0.09680900  1
  C  C97  1  0.65179700  0.94600700  0.11843200  1
  C  C98  1  0.83520400  0.59250100  0.50394300  1
  C  C99  1  0.90263200  0.22523800  0.65021000  1
  C  C100  1  0.11920100  0.59548200  0.47197300  1
  C  C101  1  0.12052600  0.09310400  0.98381100  1
  C  C102  1  0.51882400  0.76595600  0.47599400  1
  C  C103  1  0.78804900  0.58395700  0.74501100  1
  C  C104  1  0.40263200  0.27476200  0.34979000  1
  C  C105  1  0.01882400  0.73404400  0.52400600  1
  C  C106  1  0.49163900  0.72613900  0.03806500  1
  C  C107  1  0.36926200  0.00318900  0.07245900  1
  C  C108  1  0.92874300  0.36562500  0.29367700  1
  C  C109  1  0.80222300  0.26550600  0.90319100  1
  C  C110  1  0.69848500  0.26673500  0.39574400  1
  C  C111  1  0.98847700  0.54461000  0.21000500  1
  C  C112  1  0.43135000  0.86009100  0.67048400  1
  C  C113  1  0.09566500  0.13273900  0.21822700  1
  C  C114  1  0.87947400  0.90689600  0.01618900  1
  C  C115  1  0.06481900  0.82492600  0.64995900  1
  C  C116  1  0.50836100  0.27386100  0.96193500  1
  C  C117  1  0.40340800  0.77079100  0.85937100  1
  C  C118  1  0.40433500  0.63273900  0.21822700  1
  C  C119  1  0.09659200  0.27079100  0.85937100  1
  C  C120  1  0.19777700  0.73449400  0.09680900  1
  C  C121  1  0.38079900  0.09548200  0.47197300  1
  C  C122  1  0.92470500  0.67655500  0.84467400  1
  C  C123  1  0.86926200  0.49681100  0.92754100  1
  C  C124  1  0.99163900  0.77386100  0.96193500  1
  C  C125  1  0.42470500  0.82344500  0.15532600  1
  C  C126  1  0.98117600  0.26595600  0.47599400  1
  C  C127  1  0.51152300  0.04461000  0.21000500  1
  C  C128  1  0.56481900  0.67507400  0.35004100  1
  C  C129  1  0.62052600  0.40689600  0.01618900  1
  C  C130  1  0.19874100  0.90175400  0.76497500  1
  C  C131  1  0.09736800  0.77476200  0.34979000  1
  C  C132  1  0.34820300  0.05399300  0.88156800  1
  C  C133  1  0.01152300  0.45539000  0.78999500  1
  C  C134  1  0.59659200  0.22920900  0.14062900  1
  C  C135  1  0.90340800  0.72920900  0.14062900  1
