# generated using pymatgen
data_Cu2Ni2C9
_symmetry_space_group_name_H-M   'P 1'
_cell_length_a   13.37143900
_cell_length_b   5.53153600
_cell_length_c   10.00005277
_cell_angle_alpha   56.90368933
_cell_angle_beta   90.00000000
_cell_angle_gamma   90.00000000
_symmetry_Int_Tables_number   1
_chemical_formula_structural   Cu2Ni2C9
_chemical_formula_sum   'Cu8 Ni8 C36'
_cell_volume   619.64454373
_cell_formula_units_Z   4
loop_
 _symmetry_equiv_pos_site_id
 _symmetry_equiv_pos_as_xyz
  1  'x, y, z'
loop_
 _atom_site_type_symbol
 _atom_site_label
 _atom_site_symmetry_multiplicity
 _atom_site_fract_x
 _atom_site_fract_y
 _atom_site_fract_z
 _atom_site_occupancy
  C  C0  1  0.37364300  0.76059100  0.10561900  1
  C  C1  1  0.75357100  0.02810500  0.16743500  1
  C  C2  1  0.25357100  0.97189500  0.33256500  1
  C  C3  1  0.87364300  0.23940900  0.39438100  1
  C  C4  1  0.12635700  0.76059100  0.60561900  1
  C  C5  1  0.74642900  0.02810500  0.66743500  1
  C  C6  1  0.24642900  0.97189500  0.83256500  1
  C  C7  1  0.62635700  0.23940900  0.89438100  1
  Ni  Ni8  1  0.08665300  0.55148400  0.11780100  1
  Ni  Ni9  1  0.49195600  0.17137900  0.20497700  1
  Ni  Ni10  1  0.99195600  0.82862100  0.29502300  1
  Ni  Ni11  1  0.58665300  0.44851600  0.38219900  1
  Ni  Ni12  1  0.41334700  0.55148400  0.61780100  1
  Ni  Ni13  1  0.00804400  0.17137900  0.70497700  1
  Ni  Ni14  1  0.50804400  0.82862100  0.79502300  1
  Ni  Ni15  1  0.91334700  0.44851600  0.88219900  1
  Cu  Cu16  1  0.88261000  0.76617200  0.03432500  1
  Cu  Cu17  1  0.67068200  0.63180000  0.03560300  1
  Cu  Cu18  1  0.17068200  0.36820000  0.46439700  1
  Cu  Cu19  1  0.38261000  0.23382800  0.46567400  1
  Cu  Cu20  1  0.61739000  0.76617200  0.53432600  1
  Cu  Cu21  1  0.82931800  0.63180000  0.53560300  1
  Cu  Cu22  1  0.32931800  0.36820000  0.96439700  1
  Cu  Cu23  1  0.11739000  0.23382800  0.96567400  1
  C  C24  1  0.79238300  0.56184600  0.02935500  1
  C  C25  1  0.16238700  0.92764500  0.00871700  1
  C  C26  1  0.03489800  0.20946800  0.09497200  1
  C  C27  1  0.61626700  0.33723500  0.06769500  1
  C  C28  1  0.36009900  0.08392700  0.14073200  1
  C  C29  1  0.65596400  0.70637800  0.17103200  1
  C  C30  1  0.93815800  0.58449400  0.20992700  1
  C  C31  1  0.43815800  0.41550600  0.29007300  1
  C  C32  1  0.15596400  0.29362200  0.32896800  1
  C  C33  1  0.86009900  0.91607300  0.35926800  1
  C  C34  1  0.11626700  0.66276500  0.43230500  1
  C  C35  1  0.53489800  0.79053200  0.40502800  1
  C  C36  1  0.66238700  0.07235500  0.49128300  1
  C  C37  1  0.29238300  0.43815400  0.47064500  1
  C  C38  1  0.70761700  0.56184600  0.52935500  1
  C  C39  1  0.33761300  0.92764500  0.50871700  1
  C  C40  1  0.46510200  0.20946800  0.59497200  1
  C  C41  1  0.88373300  0.33723500  0.56769500  1
  C  C42  1  0.13990100  0.08392700  0.64073200  1
  C  C43  1  0.84403600  0.70637800  0.67103200  1
  C  C44  1  0.56184200  0.58449400  0.70992700  1
  C  C45  1  0.06184200  0.41550600  0.79007300  1
  C  C46  1  0.34403600  0.29362200  0.82896800  1
  C  C47  1  0.63990100  0.91607300  0.85926800  1
  C  C48  1  0.38373300  0.66276500  0.93230500  1
  C  C49  1  0.96510200  0.79053200  0.90502800  1
  C  C50  1  0.83761300  0.07235500  0.99128300  1
  C  C51  1  0.20761700  0.43815400  0.97064500  1
