# generated using pymatgen
data_Cu9NiC20
_symmetry_space_group_name_H-M   'P 1'
_cell_length_a   6.46175100
_cell_length_b   7.43153027
_cell_length_c   8.20935677
_cell_angle_alpha   77.23293671
_cell_angle_beta   75.28285167
_cell_angle_gamma   72.06121965
_symmetry_Int_Tables_number   1
_chemical_formula_structural   Cu9NiC20
_chemical_formula_sum   'Cu9 Ni1 C20'
_cell_volume   358.35856394
_cell_formula_units_Z   1
loop_
 _symmetry_equiv_pos_site_id
 _symmetry_equiv_pos_as_xyz
  1  'x, y, z'
loop_
 _atom_site_type_symbol
 _atom_site_label
 _atom_site_symmetry_multiplicity
 _atom_site_fract_x
 _atom_site_fract_y
 _atom_site_fract_z
 _atom_site_occupancy
  Ni  Ni0  1  0.20059500  0.30104400  0.60019000  1
  Cu  Cu1  1  0.39814500  0.60371700  0.19968600  1
  Cu  Cu2  1  0.19926300  0.80164800  0.59578300  1
  Cu  Cu3  1  0.60085200  0.89545900  0.80227100  1
  Cu  Cu4  1  0.40337700  0.09926600  0.19574200  1
  Cu  Cu5  1  0.79605400  0.70168600  0.39908100  1
  Cu  Cu6  1  0.60192700  0.39737300  0.80282400  1
  Cu  Cu7  1  0.80338100  0.19706100  0.39913000  1
  Cu  Cu8  1  0.99750800  0.00006200  0.00227600  1
  Cu  Cu9  1  0.99945100  0.50239300  0.00231500  1
  C  C10  1  0.38382600  0.92056100  0.04022700  1
  C  C11  1  0.08531000  0.72099200  0.13316500  1
  C  C12  1  0.21783900  0.97472700  0.76355600  1
  C  C13  1  0.31697800  0.37591000  0.05939400  1
  C  C14  1  0.01753200  0.17710200  0.16149400  1
  C  C15  1  0.11858600  0.59486400  0.45209300  1
  C  C16  1  0.71815300  0.97887600  0.26163300  1
  C  C17  1  0.42769800  0.77273900  0.36198400  1
  C  C18  1  0.28157900  0.52437300  0.74165300  1
  C  C19  1  0.87938200  0.92136900  0.54175200  1
  C  C20  1  0.58294000  0.72200400  0.63896800  1
  C  C21  1  0.48649600  0.32085100  0.33502800  1
  C  C22  1  0.17994800  0.10860500  0.43392100  1
  C  C23  1  0.78440300  0.52236600  0.23891600  1
  C  C24  1  0.53391500  0.17654800  0.66517000  1
  C  C25  1  0.81472400  0.38370500  0.55724900  1
  C  C26  1  0.60944000  0.58288900  0.95971400  1
  C  C27  1  0.91587400  0.77679500  0.86112200  1
  C  C28  1  0.96541900  0.32389800  0.84897800  1
  C  C29  1  0.67940300  0.12111500  0.94468700  1
