# generated using pymatgen
data_Cu3Ni2C31
_symmetry_space_group_name_H-M   'P 1'
_cell_length_a   8.60597556
_cell_length_b   8.60597556
_cell_length_c   8.60597528
_cell_angle_alpha   61.06134477
_cell_angle_beta   61.06134477
_cell_angle_gamma   61.06134924
_symmetry_Int_Tables_number   1
_chemical_formula_structural   Cu3Ni2C31
_chemical_formula_sum   'Cu3 Ni2 C31'
_cell_volume   461.46787824
_cell_formula_units_Z   1
loop_
 _symmetry_equiv_pos_site_id
 _symmetry_equiv_pos_as_xyz
  1  'x, y, z'
loop_
 _atom_site_type_symbol
 _atom_site_label
 _atom_site_symmetry_multiplicity
 _atom_site_fract_x
 _atom_site_fract_y
 _atom_site_fract_z
 _atom_site_occupancy
  Ni  Ni0  1  0.00217700  0.00217700  0.00217700  1
  Ni  Ni1  1  0.49869300  0.49869300  0.49869300  1
  Cu  Cu2  1  0.35306600  0.35306600  0.35306600  1
  Cu  Cu3  1  0.14667200  0.14667200  0.14667200  1
  Cu  Cu4  1  0.64509000  0.64509000  0.64509000  1
  C  C5  1  0.85216500  0.85216500  0.85216500  1
  C  C6  1  0.74740100  0.05257500  0.44271800  1
  C  C7  1  0.05257500  0.44271800  0.74740100  1
  C  C8  1  0.44271800  0.74740100  0.05257500  1
  C  C9  1  0.53999100  0.25781400  0.95388800  1
  C  C10  1  0.95388800  0.53999100  0.25781400  1
  C  C11  1  0.25781400  0.95388800  0.53999100  1
  C  C12  1  0.88996200  0.49954500  0.68400400  1
  C  C13  1  0.49954500  0.68400400  0.88996200  1
  C  C14  1  0.68400400  0.88996200  0.49954500  1
  C  C15  1  0.90640600  0.06586600  0.24869500  1
  C  C16  1  0.82021300  0.02427100  0.59110700  1
  C  C17  1  0.59094400  0.24830900  0.42890400  1
  C  C18  1  0.06586600  0.24869500  0.90640600  1
  C  C19  1  0.24830900  0.42890400  0.59094400  1
  C  C20  1  0.39283000  0.17896200  0.99720900  1
  C  C21  1  0.42890400  0.59094400  0.24830900  1
  C  C22  1  0.74228000  0.10199300  0.94335200  1
  C  C23  1  0.99720900  0.39283000  0.17896200  1
  C  C24  1  0.02427100  0.59110700  0.82021300  1
  C  C25  1  0.24869500  0.90640600  0.06586600  1
  C  C26  1  0.56031800  0.40877000  0.75324400  1
  C  C27  1  0.59110700  0.82021300  0.02427100  1
  C  C28  1  0.75324400  0.56031800  0.40877000  1
  C  C29  1  0.94335200  0.74228000  0.10199300  1
  C  C30  1  0.40877000  0.75324400  0.56031800  1
  C  C31  1  0.17896200  0.99720900  0.39283000  1
  C  C32  1  0.10199300  0.94335200  0.74228000  1
  C  C33  1  0.33190700  0.10441500  0.49424400  1
  C  C34  1  0.49424400  0.33190700  0.10441500  1
  C  C35  1  0.10441500  0.49424400  0.33190700  1
