# generated using pymatgen
data_Cu2NiC
_symmetry_space_group_name_H-M   'P 1'
_cell_length_a   8.50911500
_cell_length_b   5.66354500
_cell_length_c   7.40517981
_cell_angle_alpha   74.32442298
_cell_angle_beta   90.00000000
_cell_angle_gamma   90.00000000
_symmetry_Int_Tables_number   1
_chemical_formula_structural   Cu2NiC
_chemical_formula_sum   'Cu8 Ni4 C4'
_cell_volume   343.59560402
_cell_formula_units_Z   4
loop_
 _symmetry_equiv_pos_site_id
 _symmetry_equiv_pos_as_xyz
  1  'x, y, z'
loop_
 _atom_site_type_symbol
 _atom_site_label
 _atom_site_symmetry_multiplicity
 _atom_site_fract_x
 _atom_site_fract_y
 _atom_site_fract_z
 _atom_site_occupancy
  C  C0  1  0.67499800  0.06381800  0.96996100  1
  C  C1  1  0.17499800  0.93618200  0.53003900  1
  C  C2  1  0.32500200  0.93618200  0.03003900  1
  C  C3  1  0.82500200  0.06381800  0.46996100  1
  Ni  Ni4  1  0.49208400  0.57029200  0.74213100  1
  Ni  Ni5  1  0.99208400  0.42970800  0.75786900  1
  Ni  Ni6  1  0.50791600  0.42970800  0.25786900  1
  Ni  Ni7  1  0.00791600  0.57029200  0.24213100  1
  Cu  Cu8  1  0.83690300  0.24075700  0.72358700  1
  Cu  Cu9  1  0.33690300  0.75924300  0.77641300  1
  Cu  Cu10  1  0.16309700  0.75924300  0.27641300  1
  Cu  Cu11  1  0.66309700  0.24075700  0.22358700  1
  Cu  Cu12  1  0.93574400  0.73653900  0.68467600  1
  Cu  Cu13  1  0.43574400  0.26346100  0.81532400  1
  Cu  Cu14  1  0.06425600  0.26346100  0.31532400  1
  Cu  Cu15  1  0.56425600  0.73653900  0.18467600  1
