# generated using pymatgen
data_Cu2Ni8C11
_symmetry_space_group_name_H-M   'P 1'
_cell_length_a   6.03132700
_cell_length_b   6.45880800
_cell_length_c   11.98632620
_cell_angle_alpha   65.52955284
_cell_angle_beta   90.00000000
_cell_angle_gamma   90.00000000
_symmetry_Int_Tables_number   1
_chemical_formula_structural   Cu2Ni8C11
_chemical_formula_sum   'Cu4 Ni16 C22'
_cell_volume   424.98760785
_cell_formula_units_Z   2
loop_
 _symmetry_equiv_pos_site_id
 _symmetry_equiv_pos_as_xyz
  1  'x, y, z'
loop_
 _atom_site_type_symbol
 _atom_site_label
 _atom_site_symmetry_multiplicity
 _atom_site_fract_x
 _atom_site_fract_y
 _atom_site_fract_z
 _atom_site_occupancy
  C  C0  1  0.00000000  0.00000000  0.00000000  1
  C  C1  1  0.50000000  0.00000000  0.50000000  1
  Ni  Ni2  1  0.68374700  0.28481300  0.93058700  1
  Ni  Ni3  1  0.69027200  0.78845500  0.98272800  1
  Ni  Ni4  1  0.91117800  0.42199100  0.88468500  1
  Ni  Ni5  1  0.85261300  0.82927000  0.86018100  1
  Ni  Ni6  1  0.41117800  0.57800900  0.61531500  1
  Ni  Ni7  1  0.35261300  0.17073000  0.63981900  1
  Ni  Ni8  1  0.18374700  0.71518700  0.56941300  1
  Ni  Ni9  1  0.19027200  0.21154500  0.51727200  1
  Ni  Ni10  1  0.80972800  0.78845500  0.48272800  1
  Ni  Ni11  1  0.81625300  0.28481300  0.43058700  1
  Ni  Ni12  1  0.64738700  0.82927000  0.36018100  1
  Ni  Ni13  1  0.58882200  0.42199100  0.38468500  1
  Ni  Ni14  1  0.14738700  0.17073000  0.13981900  1
  Ni  Ni15  1  0.08882200  0.57800900  0.11531500  1
  Ni  Ni16  1  0.30972800  0.21154500  0.01727200  1
  Ni  Ni17  1  0.31625300  0.71518700  0.06941300  1
  Cu  Cu18  1  0.34414800  0.25377500  0.82539500  1
  Cu  Cu19  1  0.84414800  0.74622500  0.67460500  1
  Cu  Cu20  1  0.15585200  0.25377500  0.32539500  1
  Cu  Cu21  1  0.65585200  0.74622500  0.17460500  1
  C  C22  1  0.84747200  0.28359600  0.95370000  1
  C  C23  1  0.42937200  0.32658600  0.90073800  1
  C  C24  1  0.78954900  0.90457800  0.91344800  1
  C  C25  1  0.17540200  0.11041900  0.85712100  1
  C  C26  1  0.91596300  0.68859400  0.78356900  1
  C  C27  1  0.41596300  0.31140600  0.71643100  1
  C  C28  1  0.67540200  0.88958100  0.64287900  1
  C  C29  1  0.92937200  0.67341400  0.59926200  1
  C  C30  1  0.34747200  0.71640400  0.54630000  1
  C  C31  1  0.28954900  0.09542200  0.58655200  1
  C  C32  1  0.71045100  0.90457800  0.41344800  1
  C  C33  1  0.65252800  0.28359600  0.45370000  1
  C  C34  1  0.07062800  0.32658600  0.40073800  1
  C  C35  1  0.32459800  0.11041900  0.35712100  1
  C  C36  1  0.58403700  0.68859400  0.28356900  1
  C  C37  1  0.08403700  0.31140600  0.21643100  1
  C  C38  1  0.82459800  0.88958100  0.14287900  1
  C  C39  1  0.21045100  0.09542200  0.08655200  1
  C  C40  1  0.57062800  0.67341400  0.09926200  1
  C  C41  1  0.15252800  0.71640400  0.04630000  1
