# generated using pymatgen
data_CuNi4C21
_symmetry_space_group_name_H-M   'P 1'
_cell_length_a   11.01499123
_cell_length_b   11.01499123
_cell_length_c   9.04026100
_cell_angle_alpha   90.00000000
_cell_angle_beta   90.00000000
_cell_angle_gamma   119.99999535
_symmetry_Int_Tables_number   1
_chemical_formula_structural   CuNi4C21
_chemical_formula_sum   'Cu2 Ni8 C42'
_cell_volume   949.90447188
_cell_formula_units_Z   2
loop_
 _symmetry_equiv_pos_site_id
 _symmetry_equiv_pos_as_xyz
  1  'x, y, z'
loop_
 _atom_site_type_symbol
 _atom_site_label
 _atom_site_symmetry_multiplicity
 _atom_site_fract_x
 _atom_site_fract_y
 _atom_site_fract_z
 _atom_site_occupancy
  C  C0  1  0.69331400  0.84665700  0.75027900  1
  C  C1  1  0.15334300  0.84665700  0.75027900  1
  C  C2  1  0.15334300  0.30668600  0.75027900  1
  C  C3  1  0.30668600  0.15334300  0.25027900  1
  C  C4  1  0.84665700  0.15334300  0.25027900  1
  C  C5  1  0.84665700  0.69331400  0.25027900  1
  C  C6  1  0.76678800  0.23321200  0.88852500  1
  C  C7  1  0.76678800  0.53357500  0.88852500  1
  C  C8  1  0.46642500  0.23321200  0.88852500  1
  C  C9  1  0.23321200  0.76678800  0.38852500  1
  C  C10  1  0.23321200  0.46642500  0.38852500  1
  C  C11  1  0.53357500  0.76678800  0.38852500  1
  C  C12  1  0.56766000  0.43234000  0.58333700  1
  C  C13  1  0.56766000  0.13532000  0.58333700  1
  C  C14  1  0.86468000  0.43234000  0.58333700  1
  C  C15  1  0.43234000  0.56766000  0.08333700  1
  C  C16  1  0.43234000  0.86468000  0.08333700  1
  C  C17  1  0.13532000  0.56766000  0.08333700  1
  C  C18  1  0.70289900  0.11244900  0.92951700  1
  C  C19  1  0.88755100  0.59045000  0.92951700  1
  C  C20  1  0.40955000  0.29710100  0.92951700  1
  C  C21  1  0.88755100  0.29710100  0.92951700  1
  C  C22  1  0.40955000  0.11244900  0.92951700  1
  C  C23  1  0.70289900  0.59045000  0.92951700  1
  C  C24  1  0.29710100  0.88755100  0.42951700  1
  C  C25  1  0.11244900  0.40955000  0.42951700  1
  C  C26  1  0.59045000  0.70289900  0.42951700  1
  C  C27  1  0.11244900  0.70289900  0.42951700  1
  C  C28  1  0.59045000  0.88755100  0.42951700  1
  C  C29  1  0.29710100  0.40955000  0.42951700  1
  C  C30  1  0.50654300  0.49345700  0.62053900  1
  C  C31  1  0.50654300  0.01308500  0.62053900  1
  C  C32  1  0.98691500  0.49345700  0.62053900  1
  C  C33  1  0.49345700  0.50654300  0.12053900  1
  C  C34  1  0.49345700  0.98691500  0.12053900  1
  C  C35  1  0.01308500  0.50654300  0.12053900  1
  C  C36  1  0.57757500  0.42242500  0.45105000  1
  C  C37  1  0.57757500  0.15515100  0.45105000  1
  C  C38  1  0.84484900  0.42242500  0.45105000  1
  C  C39  1  0.42242500  0.57757500  0.95105000  1
  C  C40  1  0.42242500  0.84484900  0.95105000  1
  C  C41  1  0.15515100  0.57757500  0.95105000  1
  Ni  Ni42  1  0.77180800  0.22819200  0.66025900  1
  Ni  Ni43  1  0.77180800  0.54361700  0.66025900  1
  Ni  Ni44  1  0.45638300  0.22819200  0.66025900  1
  Ni  Ni45  1  0.22819200  0.77180800  0.16025900  1
  Ni  Ni46  1  0.22819200  0.45638300  0.16025900  1
  Ni  Ni47  1  0.54361700  0.77180800  0.16025900  1
  Ni  Ni48  1  0.66666700  0.33333300  0.97792000  1
  Ni  Ni49  1  0.33333300  0.66666700  0.47792000  1
  Cu  Cu50  1  0.00000000  0.00000000  0.49585900  1
  Cu  Cu51  1  0.00000000  0.00000000  0.99585900  1
