# generated using pymatgen
data_CuNiC6
_symmetry_space_group_name_H-M   'P 1'
_cell_length_a   5.09589900
_cell_length_b   6.36846700
_cell_length_c   10.77205377
_cell_angle_alpha   89.38687014
_cell_angle_beta   90.00000000
_cell_angle_gamma   90.00000000
_symmetry_Int_Tables_number   1
_chemical_formula_structural   CuNiC6
_chemical_formula_sum   'Cu4 Ni4 C24'
_cell_volume   349.56614098
_cell_formula_units_Z   4
loop_
 _symmetry_equiv_pos_site_id
 _symmetry_equiv_pos_as_xyz
  1  'x, y, z'
loop_
 _atom_site_type_symbol
 _atom_site_label
 _atom_site_symmetry_multiplicity
 _atom_site_fract_x
 _atom_site_fract_y
 _atom_site_fract_z
 _atom_site_occupancy
  C  C0  1  0.19331300  0.00431200  0.83101800  1
  C  C1  1  0.30668700  0.00431200  0.33101800  1
  C  C2  1  0.30264100  0.22561800  0.57330000  1
  C  C3  1  0.19735900  0.22561800  0.07330000  1
  C  C4  1  0.80264100  0.77438200  0.92670000  1
  C  C5  1  0.69735900  0.77438200  0.42670000  1
  C  C6  1  0.69331300  0.99568800  0.66898200  1
  C  C7  1  0.80668700  0.99568800  0.16898200  1
  Ni  Ni8  1  0.19533700  0.50037500  0.83926100  1
  Ni  Ni9  1  0.69533700  0.49962500  0.66073900  1
  Ni  Ni10  1  0.30466300  0.50037500  0.33926100  1
  Ni  Ni11  1  0.80466300  0.49962500  0.16073900  1
  Cu  Cu12  1  0.69237900  0.24485100  0.91155200  1
  Cu  Cu13  1  0.80762100  0.24485100  0.41155200  1
  Cu  Cu14  1  0.19237900  0.75514900  0.58844800  1
  Cu  Cu15  1  0.30762100  0.75514900  0.08844800  1
  C  C16  1  0.80310500  0.04083100  0.83968600  1
  C  C17  1  0.69689500  0.04083100  0.33968600  1
  C  C18  1  0.36706500  0.25061500  0.91034900  1
  C  C19  1  0.69979000  0.25049000  0.55589400  1
  C  C20  1  0.13293500  0.25061500  0.41034900  1
  C  C21  1  0.79526100  0.46805700  0.83959400  1
  C  C22  1  0.80021000  0.25049000  0.05589400  1
  C  C23  1  0.70473900  0.46805700  0.33959400  1
  C  C24  1  0.29526100  0.53194300  0.66040600  1
  C  C25  1  0.19979000  0.74951000  0.94410600  1
  C  C26  1  0.20473900  0.53194300  0.16040600  1
  C  C27  1  0.86706500  0.74938500  0.58965100  1
  C  C28  1  0.30021000  0.74951000  0.44410600  1
  C  C29  1  0.63293500  0.74938500  0.08965100  1
  C  C30  1  0.30310500  0.95916900  0.66031400  1
  C  C31  1  0.19689500  0.95916900  0.16031400  1
