# generated using pymatgen
data_CuNi5C16
_symmetry_space_group_name_H-M   'P 1'
_cell_length_a   5.01212921
_cell_length_b   5.01212921
_cell_length_c   9.88437596
_cell_angle_alpha   87.72992332
_cell_angle_beta   87.72992332
_cell_angle_gamma   120.27032393
_symmetry_Int_Tables_number   1
_chemical_formula_structural   CuNi5C16
_chemical_formula_sum   'Cu1 Ni5 C16'
_cell_volume   213.77484325
_cell_formula_units_Z   1
loop_
 _symmetry_equiv_pos_site_id
 _symmetry_equiv_pos_as_xyz
  1  'x, y, z'
loop_
 _atom_site_type_symbol
 _atom_site_label
 _atom_site_symmetry_multiplicity
 _atom_site_fract_x
 _atom_site_fract_y
 _atom_site_fract_z
 _atom_site_occupancy
  C  C0  1  0.46842200  0.80271700  0.71659400  1
  C  C1  1  0.19728300  0.53157800  0.28340600  1
  C  C2  1  0.80271700  0.46842200  0.71659400  1
  C  C3  1  0.53157800  0.19728300  0.28340600  1
  Ni  Ni4  1  0.16471200  0.83528800  0.50000000  1
  Ni  Ni5  1  0.66612000  0.33388000  0.00000000  1
  Ni  Ni6  1  0.33388000  0.66612000  0.00000000  1
  Ni  Ni7  1  0.83528800  0.16471200  0.50000000  1
  Ni  Ni8  1  0.50000000  0.50000000  0.50000000  1
  Cu  Cu9  1  0.00000000  0.00000000  0.00000000  1
  C  C10  1  0.32997600  0.98409900  0.10433900  1
  C  C11  1  0.01590100  0.67002400  0.89566100  1
  C  C12  1  0.50906600  0.84898200  0.39775200  1
  C  C13  1  0.84898200  0.50906600  0.39775200  1
  C  C14  1  0.15101800  0.49093400  0.60224800  1
  C  C15  1  0.81076400  0.81076400  0.60352500  1
  C  C16  1  0.49093400  0.15101800  0.60224800  1
  C  C17  1  0.98409900  0.32997500  0.10433900  1
  C  C18  1  0.63494400  0.63494400  0.10335800  1
  C  C19  1  0.67002500  0.01590100  0.89566100  1
  C  C20  1  0.36505600  0.36505600  0.89664200  1
  C  C21  1  0.18923600  0.18923600  0.39647500  1
