# generated using pymatgen
data_Cu4Ni2C9
_symmetry_space_group_name_H-M   'P 1'
_cell_length_a   5.24377357
_cell_length_b   5.24377357
_cell_length_c   14.34692000
_cell_angle_alpha   90.00000000
_cell_angle_beta   90.00000000
_cell_angle_gamma   119.99999458
_symmetry_Int_Tables_number   1
_chemical_formula_structural   Cu4Ni2C9
_chemical_formula_sum   'Cu8 Ni4 C18'
_cell_volume   341.64667050
_cell_formula_units_Z   2
loop_
 _symmetry_equiv_pos_site_id
 _symmetry_equiv_pos_as_xyz
  1  'x, y, z'
loop_
 _atom_site_type_symbol
 _atom_site_label
 _atom_site_symmetry_multiplicity
 _atom_site_fract_x
 _atom_site_fract_y
 _atom_site_fract_z
 _atom_site_occupancy
  Ni  Ni0  1  0.00000000  0.00000000  0.14149900  1
  Ni  Ni1  1  0.00000000  0.00000000  0.35850100  1
  Ni  Ni2  1  0.00000000  0.00000000  0.64149900  1
  Ni  Ni3  1  0.00000000  0.00000000  0.85850100  1
  Cu  Cu4  1  0.33333300  0.66666700  0.01839700  1
  Cu  Cu5  1  0.33333300  0.66666700  0.30320400  1
  Cu  Cu6  1  0.33333300  0.66666700  0.51839700  1
  Cu  Cu7  1  0.33333300  0.66666700  0.80320400  1
  Cu  Cu8  1  0.66666700  0.33333300  0.19679600  1
  Cu  Cu9  1  0.66666700  0.33333300  0.48160300  1
  Cu  Cu10  1  0.66666700  0.33333300  0.69679600  1
  Cu  Cu11  1  0.66666700  0.33333300  0.98160300  1
  C  C12  1  0.00000000  0.71481100  0.75000000  1
  C  C13  1  0.02364800  0.68332300  0.41573800  1
  C  C14  1  0.31667700  0.97635200  0.91573800  1
  C  C15  1  0.02364800  0.34032400  0.91573800  1
  C  C16  1  0.00000000  0.28518900  0.25000000  1
  C  C17  1  0.28518900  0.28518900  0.75000000  1
  C  C18  1  0.31667700  0.34032400  0.41573800  1
  C  C19  1  0.65967600  0.97635200  0.41573800  1
  C  C20  1  0.34032400  0.31667700  0.08426200  1
  C  C21  1  0.28518900  0.00000000  0.25000000  1
  C  C22  1  0.65967600  0.68332300  0.91573800  1
  C  C23  1  0.34032400  0.02364800  0.58426200  1
  C  C24  1  0.68332300  0.65967600  0.58426200  1
  C  C25  1  0.71481100  0.71481100  0.25000000  1
  C  C26  1  0.97635200  0.65967600  0.08426200  1
  C  C27  1  0.68332300  0.02364800  0.08426200  1
  C  C28  1  0.71481100  0.00000000  0.75000000  1
  C  C29  1  0.97635200  0.31667700  0.58426200  1
