# generated using pymatgen
data_CuNi5C6
_symmetry_space_group_name_H-M   'P 1'
_cell_length_a   3.29357421
_cell_length_b   3.29357421
_cell_length_c   15.66298900
_cell_angle_alpha   90.00000000
_cell_angle_beta   90.00000000
_cell_angle_gamma   120.00000429
_symmetry_Int_Tables_number   1
_chemical_formula_structural   CuNi5C6
_chemical_formula_sum   'Cu1 Ni5 C6'
_cell_volume   147.14318875
_cell_formula_units_Z   1
loop_
 _symmetry_equiv_pos_site_id
 _symmetry_equiv_pos_as_xyz
  1  'x, y, z'
loop_
 _atom_site_type_symbol
 _atom_site_label
 _atom_site_symmetry_multiplicity
 _atom_site_fract_x
 _atom_site_fract_y
 _atom_site_fract_z
 _atom_site_occupancy
  C  C0  1  0.33333300  0.66666700  0.00672500  1
  C  C1  1  0.33333300  0.66666700  0.33135500  1
  C  C2  1  0.33333300  0.66666700  0.66544800  1
  C  C3  1  0.66666700  0.33333300  0.49872900  1
  C  C4  1  0.66666700  0.33333300  0.16510100  1
  C  C5  1  0.66666700  0.33333300  0.83041300  1
  Ni  Ni6  1  0.33333300  0.66666700  0.46213900  1
  Ni  Ni7  1  0.33333300  0.66666700  0.12649000  1
  Ni  Ni8  1  0.33333300  0.66666700  0.79577100  1
  Ni  Ni9  1  0.66666700  0.33333300  0.29540500  1
  Ni  Ni10  1  0.66666700  0.33333300  0.62937800  1
  Cu  Cu11  1  0.66666700  0.33333300  0.95905000  1
