# generated using pymatgen
data_Cu3Ni13C80
_symmetry_space_group_name_H-M   'P 1'
_cell_length_a   4.99821300
_cell_length_b   8.67651366
_cell_length_c   19.44913178
_cell_angle_alpha   98.25828434
_cell_angle_beta   94.75983573
_cell_angle_gamma   89.75294727
_symmetry_Int_Tables_number   1
_chemical_formula_structural   Cu3Ni13C80
_chemical_formula_sum   'Cu3 Ni13 C80'
_cell_volume   831.80224907
_cell_formula_units_Z   1
loop_
 _symmetry_equiv_pos_site_id
 _symmetry_equiv_pos_as_xyz
  1  'x, y, z'
loop_
 _atom_site_type_symbol
 _atom_site_label
 _atom_site_symmetry_multiplicity
 _atom_site_fract_x
 _atom_site_fract_y
 _atom_site_fract_z
 _atom_site_occupancy
  C  C0  1  0.99265200  0.16796400  0.24972400  1
  C  C1  1  0.87440100  0.37475600  0.37472200  1
  C  C2  1  0.74949900  0.24976100  0.00012200  1
  C  C3  1  0.74349600  0.91829600  0.99989600  1
  C  C4  1  0.99247300  0.16901300  0.75047100  1
  C  C5  1  0.75625200  0.57928900  0.50034600  1
  C  C6  1  0.87708900  0.37444000  0.87488300  1
  C  C7  1  0.75032300  0.25015900  0.49999100  1
  C  C8  1  0.74741400  0.92115500  0.50075600  1
  C  C9  1  0.62485900  0.12504600  0.12498400  1
  C  C10  1  0.75623200  0.58195500  0.99975200  1
  C  C11  1  0.50779500  0.33286700  0.25048400  1
  C  C12  1  0.62764500  0.12414700  0.62481500  1
  C  C13  1  0.50050500  0.00056100  0.24982800  1
  C  C14  1  0.49083700  0.66654500  0.24957000  1
  C  C15  1  0.50744300  0.33297500  0.75011900  1
  C  C16  1  0.37211900  0.87550700  0.37520000  1
  C  C17  1  0.49980800  0.99935100  0.75007900  1
  C  C18  1  0.25131500  0.74999200  0.99991700  1
  C  C19  1  0.49019000  0.66744400  0.74913400  1
  C  C20  1  0.24353900  0.41994100  0.00073400  1
  C  C21  1  0.37549000  0.87400900  0.87514400  1
  C  C22  1  0.25250600  0.07847800  0.49906400  1
  C  C23  1  0.25003000  0.75022000  0.49995300  1
  C  C24  1  0.12484300  0.62505200  0.12498300  1
  C  C25  1  0.24338000  0.42080000  0.49974600  1
  C  C26  1  0.00898800  0.83141000  0.24981400  1
  C  C27  1  0.25566800  0.08032400  0.99980500  1
  C  C28  1  0.12541700  0.62481100  0.62523200  1
  C  C29  1  0.99993400  0.50026300  0.25000700  1
  C  C30  1  0.00750500  0.83129000  0.75049700  1
  C  C31  1  0.00146000  0.50053500  0.75001400  1
  Ni  Ni32  1  0.87745300  0.04282100  0.37576600  1
  Ni  Ni33  1  0.87560900  0.71025000  0.87559400  1
  Ni  Ni34  1  0.87495100  0.04164500  0.87504200  1
  Ni  Ni35  1  0.62583100  0.79147900  0.12503000  1
  Ni  Ni36  1  0.62470400  0.45841600  0.12497700  1
  Ni  Ni37  1  0.62503200  0.79164400  0.62505100  1
  Ni  Ni38  1  0.62631000  0.46029700  0.62573900  1
  Ni  Ni39  1  0.37307400  0.53982900  0.37413300  1
  Ni  Ni40  1  0.37505100  0.20841200  0.37493400  1
  Ni  Ni41  1  0.37290700  0.20693500  0.87441100  1
  Ni  Ni42  1  0.12463200  0.95853300  0.12502000  1
  Ni  Ni43  1  0.12574500  0.29134500  0.12497400  1
  Ni  Ni44  1  0.12262300  0.95695900  0.62430100  1
  Cu  Cu45  1  0.86754800  0.70962700  0.37522000  1
  Cu  Cu46  1  0.38058900  0.53992500  0.87497400  1
  Cu  Cu47  1  0.13187700  0.28993400  0.62492700  1
  C  C48  1  0.96385900  0.10674500  0.06896900  1
  C  C49  1  0.92888500  0.78532600  0.06915800  1
  C  C50  1  0.92776100  0.42744000  0.06786900  1
  C  C51  1  0.96122400  0.10277700  0.56826000  1
  C  C52  1  0.82157800  0.96474800  0.18112400  1
  C  C53  1  0.82274300  0.32246600  0.18193600  1
  C  C54  1  0.92823700  0.78396600  0.56890000  1
  C  C55  1  0.92625300  0.42636300  0.56791200  1
  C  C56  1  0.78621300  0.64314200  0.18106200  1
  C  C57  1  0.72023000  0.85627400  0.31918200  1
  C  C58  1  0.82089700  0.96482200  0.68105800  1
  C  C59  1  0.82190200  0.32359400  0.68210700  1
  C  C60  1  0.67362200  0.53239900  0.31832700  1
  C  C61  1  0.67733600  0.17748700  0.31800200  1
  C  C62  1  0.78784600  0.64416100  0.68111100  1
  C  C63  1  0.71315100  0.85757300  0.81908000  1
  C  C64  1  0.46389400  0.60671500  0.06891300  1
  C  C65  1  0.57247200  0.71270500  0.43092600  1
  C  C66  1  0.57214600  0.07232700  0.43192800  1
  C  C67  1  0.67569300  0.53742100  0.81921600  1
  C  C68  1  0.67742100  0.17782400  0.81794200  1
  C  C69  1  0.42761400  0.92753000  0.06807300  1
  C  C70  1  0.42878500  0.28519000  0.06892300  1
  C  C71  1  0.53613900  0.39277000  0.43094700  1
  C  C72  1  0.46354000  0.60737800  0.56899200  1
  C  C73  1  0.57553000  0.71726600  0.93166600  1
  C  C74  1  0.57251200  0.07227500  0.93198000  1
  C  C75  1  0.32272900  0.82257600  0.18214300  1
  C  C76  1  0.32151200  0.46461300  0.18085100  1
  C  C77  1  0.42782600  0.92777600  0.56807300  1
  C  C78  1  0.42578100  0.28753800  0.56906800  1
  C  C79  1  0.53244600  0.39298400  0.93098200  1
  C  C80  1  0.28631000  0.14313500  0.18101600  1
  C  C81  1  0.21166400  0.35592100  0.31883400  1
  C  C82  1  0.32273900  0.82244400  0.68203400  1
  C  C83  1  0.32687300  0.46768100  0.68189200  1
  C  C84  1  0.17916500  0.67673900  0.31775700  1
  C  C85  1  0.17925700  0.03517000  0.31901600  1
  C  C86  1  0.28117100  0.14332900  0.68081000  1
  C  C87  1  0.21177400  0.35325400  0.81833700  1
  C  C88  1  0.07342900  0.57430900  0.43196000  1
  C  C89  1  0.07170200  0.21608200  0.43106000  1
  C  C90  1  0.17547900  0.67713200  0.81790900  1
  C  C91  1  0.17824200  0.03434600  0.81892900  1
  C  C92  1  0.03854000  0.89704900  0.43180200  1
  C  C93  1  0.07248400  0.57366800  0.93205000  1
  C  C94  1  0.07083400  0.21500300  0.93096300  1
  C  C95  1  0.03751400  0.89416100  0.93106600  1
