# generated using pymatgen
data_CuNi5C4
_symmetry_space_group_name_H-M   'P 1'
_cell_length_a   6.57212300
_cell_length_b   7.63833400
_cell_length_c   23.99807900
_cell_angle_alpha   90.00000000
_cell_angle_beta   90.00000000
_cell_angle_gamma   90.00000000
_symmetry_Int_Tables_number   1
_chemical_formula_structural   CuNi5C4
_chemical_formula_sum   'Cu4 Ni20 C16'
_cell_volume   1204.70525918
_cell_formula_units_Z   4
loop_
 _symmetry_equiv_pos_site_id
 _symmetry_equiv_pos_as_xyz
  1  'x, y, z'
loop_
 _atom_site_type_symbol
 _atom_site_label
 _atom_site_symmetry_multiplicity
 _atom_site_fract_x
 _atom_site_fract_y
 _atom_site_fract_z
 _atom_site_occupancy
  C  C0  1  0.98999200  0.75000000  0.32659500  1
  C  C1  1  0.51000800  0.75000000  0.82659500  1
  C  C2  1  0.01000800  0.25000000  0.67340500  1
  C  C3  1  0.48999200  0.25000000  0.17340500  1
  C  C4  1  0.86121300  0.75000000  0.12568700  1
  C  C5  1  0.63878700  0.75000000  0.62568700  1
  C  C6  1  0.13878700  0.25000000  0.87431300  1
  C  C7  1  0.36121300  0.25000000  0.37431300  1
  Ni  Ni8  1  0.97829600  0.51552400  0.19360700  1
  Ni  Ni9  1  0.52170400  0.98447600  0.69360700  1
  Ni  Ni10  1  0.02170400  0.01552400  0.80639300  1
  Ni  Ni11  1  0.47829600  0.48447600  0.30639300  1
  Ni  Ni12  1  0.02170400  0.48447600  0.80639300  1
  Ni  Ni13  1  0.47829600  0.01552400  0.30639300  1
  Ni  Ni14  1  0.97829600  0.98447600  0.19360700  1
  Ni  Ni15  1  0.52170400  0.51552400  0.69360700  1
  Ni  Ni16  1  0.71886300  0.51462400  0.06256200  1
  Ni  Ni17  1  0.78113700  0.98537600  0.56256200  1
  Ni  Ni18  1  0.28113700  0.01462400  0.93743800  1
  Ni  Ni19  1  0.21886300  0.48537600  0.43743800  1
  Ni  Ni20  1  0.28113700  0.48537600  0.93743800  1
  Ni  Ni21  1  0.21886300  0.01462400  0.43743800  1
  Ni  Ni22  1  0.71886300  0.98537600  0.06256200  1
  Ni  Ni23  1  0.78113700  0.51462400  0.56256200  1
  Ni  Ni24  1  0.53102400  0.75000000  0.17446400  1
  Ni  Ni25  1  0.96897600  0.75000000  0.67446400  1
  Ni  Ni26  1  0.46897600  0.25000000  0.82553600  1
  Ni  Ni27  1  0.03102400  0.25000000  0.32553600  1
  Cu  Cu28  1  0.08947500  0.75000000  0.08575000  1
  Cu  Cu29  1  0.41052500  0.75000000  0.58575000  1
  Cu  Cu30  1  0.91052500  0.25000000  0.91425000  1
  Cu  Cu31  1  0.58947500  0.25000000  0.41425000  1
  C  C32  1  0.22585000  0.75000000  0.05555900  1
  C  C33  1  0.27415000  0.75000000  0.55555900  1
  C  C34  1  0.77415000  0.25000000  0.94444100  1
  C  C35  1  0.72585000  0.25000000  0.44444100  1
  C  C36  1  0.72479000  0.75000000  0.42060900  1
  C  C37  1  0.77521000  0.75000000  0.92060900  1
  C  C38  1  0.27521000  0.25000000  0.57939100  1
  C  C39  1  0.22478900  0.25000000  0.07939100  1
