# generated using pymatgen
data_Cu5Ni2C11
_symmetry_space_group_name_H-M   'P 1'
_cell_length_a   6.77738500
_cell_length_b   7.76430800
_cell_length_c   15.11590900
_cell_angle_alpha   90.00000000
_cell_angle_beta   90.00000000
_cell_angle_gamma   90.00000000
_symmetry_Int_Tables_number   1
_chemical_formula_structural   Cu5Ni2C11
_chemical_formula_sum   'Cu20 Ni8 C44'
_cell_volume   795.42489777
_cell_formula_units_Z   4
loop_
 _symmetry_equiv_pos_site_id
 _symmetry_equiv_pos_as_xyz
  1  'x, y, z'
loop_
 _atom_site_type_symbol
 _atom_site_label
 _atom_site_symmetry_multiplicity
 _atom_site_fract_x
 _atom_site_fract_y
 _atom_site_fract_z
 _atom_site_occupancy
  C  C0  1  0.75590300  0.75995200  0.05916300  1
  C  C1  1  0.25590300  0.25995200  0.44083700  1
  C  C2  1  0.74409700  0.75995200  0.55916300  1
  C  C3  1  0.24409700  0.25995200  0.94083700  1
  C  C4  1  0.06335000  0.24973400  0.18729100  1
  C  C5  1  0.56335000  0.74973400  0.31270900  1
  C  C6  1  0.43665000  0.24973400  0.68729100  1
  C  C7  1  0.93665000  0.74973400  0.81270900  1
  Ni  Ni8  1  0.37358900  0.93947000  0.13826500  1
  Ni  Ni9  1  0.36671700  0.56361600  0.13804600  1
  Ni  Ni10  1  0.87358900  0.43947000  0.36173500  1
  Ni  Ni11  1  0.86671700  0.06361600  0.36195400  1
  Ni  Ni12  1  0.12641100  0.93947000  0.63826500  1
  Ni  Ni13  1  0.13328300  0.56361600  0.63804600  1
  Ni  Ni14  1  0.62641100  0.43947000  0.86173500  1
  Ni  Ni15  1  0.63328300  0.06361600  0.86195400  1
  Cu  Cu16  1  0.50448000  0.50609900  0.00642500  1
  Cu  Cu17  1  0.71125200  0.34990800  0.08877700  1
  Cu  Cu18  1  0.70865300  0.14657700  0.08830200  1
  Cu  Cu19  1  0.90709100  0.85258200  0.21009400  1
  Cu  Cu20  1  0.90486800  0.64503000  0.20890800  1
  Cu  Cu21  1  0.40709100  0.35258200  0.28990600  1
  Cu  Cu22  1  0.40486800  0.14503000  0.29109200  1
  Cu  Cu23  1  0.21125200  0.84990800  0.41122300  1
  Cu  Cu24  1  0.20865300  0.64657700  0.41169800  1
  Cu  Cu25  1  0.00448000  0.00609900  0.49357500  1
  Cu  Cu26  1  0.99552000  0.50609900  0.50642500  1
  Cu  Cu27  1  0.78874800  0.34990800  0.58877700  1
  Cu  Cu28  1  0.79134700  0.14657700  0.58830200  1
  Cu  Cu29  1  0.59290900  0.85258200  0.71009400  1
  Cu  Cu30  1  0.59513200  0.64503000  0.70890800  1
  Cu  Cu31  1  0.09290900  0.35258200  0.78990600  1
  Cu  Cu32  1  0.09513200  0.14503000  0.79109200  1
  Cu  Cu33  1  0.28874800  0.84990800  0.91122300  1
  Cu  Cu34  1  0.29134700  0.64657700  0.91169800  1
  Cu  Cu35  1  0.49552000  0.00609900  0.99357500  1
  C  C36  1  0.55303300  0.95050300  0.07410300  1
  C  C37  1  0.55096400  0.55073400  0.07267200  1
  C  C38  1  0.79676300  0.24770200  0.08892300  1
  C  C39  1  0.27370800  0.75141500  0.11972100  1
  C  C40  1  0.21188200  0.43418100  0.11143300  1
  C  C41  1  0.21608700  0.06920400  0.11317200  1
  C  C42  1  0.84949900  0.75015500  0.18096400  1
  C  C43  1  0.43819100  0.94403100  0.23512600  1
  C  C44  1  0.44058700  0.55524600  0.23293700  1
  C  C45  1  0.93819100  0.44403100  0.26487400  1
  C  C46  1  0.94058700  0.05524600  0.26706300  1
  C  C47  1  0.34949900  0.25015500  0.31903600  1
  C  C48  1  0.71608700  0.56920400  0.38682800  1
  C  C49  1  0.71188200  0.93418100  0.38856700  1
  C  C50  1  0.77370800  0.25141500  0.38027900  1
  C  C51  1  0.29676300  0.74770200  0.41107700  1
  C  C52  1  0.05303300  0.45050300  0.42589700  1
  C  C53  1  0.05096400  0.05073400  0.42732800  1
  C  C54  1  0.94696700  0.95050300  0.57410300  1
  C  C55  1  0.94903600  0.55073400  0.57267200  1
  C  C56  1  0.70323700  0.24770200  0.58892300  1
  C  C57  1  0.22629200  0.75141500  0.61972100  1
  C  C58  1  0.28811800  0.43418100  0.61143300  1
  C  C59  1  0.28391300  0.06920400  0.61317200  1
  C  C60  1  0.65050100  0.75015500  0.68096400  1
  C  C61  1  0.06180900  0.94403100  0.73512600  1
  C  C62  1  0.05941300  0.55524600  0.73293700  1
  C  C63  1  0.56180900  0.44403100  0.76487400  1
  C  C64  1  0.55941300  0.05524600  0.76706300  1
  C  C65  1  0.15050100  0.25015500  0.81903600  1
  C  C66  1  0.78811800  0.93418100  0.88856700  1
  C  C67  1  0.78391300  0.56920400  0.88682800  1
  C  C68  1  0.72629200  0.25141500  0.88027900  1
  C  C69  1  0.20323700  0.74770200  0.91107700  1
  C  C70  1  0.44696700  0.45050300  0.92589700  1
  C  C71  1  0.44903600  0.05073400  0.92732800  1
