# generated using pymatgen
data_Cu3Ni2C31
_symmetry_space_group_name_H-M   'P 1'
_cell_length_a   8.55840822
_cell_length_b   8.55840822
_cell_length_c   8.55840780
_cell_angle_alpha   60.67423087
_cell_angle_beta   60.67423087
_cell_angle_gamma   60.67422868
_symmetry_Int_Tables_number   1
_chemical_formula_structural   Cu3Ni2C31
_chemical_formula_sum   'Cu3 Ni2 C31'
_cell_volume   450.01208478
_cell_formula_units_Z   1
loop_
 _symmetry_equiv_pos_site_id
 _symmetry_equiv_pos_as_xyz
  1  'x, y, z'
loop_
 _atom_site_type_symbol
 _atom_site_label
 _atom_site_symmetry_multiplicity
 _atom_site_fract_x
 _atom_site_fract_y
 _atom_site_fract_z
 _atom_site_occupancy
  Ni  Ni0  1  0.99750100  0.99750100  0.99750100  1
  Ni  Ni1  1  0.49894300  0.49894300  0.49894300  1
  C  C2  1  0.14470800  0.14470800  0.14470800  1
  Cu  Cu3  1  0.64223500  0.64223500  0.64223500  1
  Cu  Cu4  1  0.85607200  0.85607200  0.85607200  1
  Cu  Cu5  1  0.35705100  0.35705100  0.35705100  1
  C  C6  1  0.95591700  0.25145500  0.54359300  1
  C  C7  1  0.54359300  0.95591700  0.25145500  1
  C  C8  1  0.25145500  0.54359300  0.95591700  1
  C  C9  1  0.75058100  0.45687900  0.04451700  1
  C  C10  1  0.45687900  0.04451700  0.75058100  1
  C  C11  1  0.04451700  0.75058100  0.45687900  1
  C  C12  1  0.50658400  0.10729500  0.31957500  1
  C  C13  1  0.31957500  0.50658400  0.10729500  1
  C  C14  1  0.10729500  0.31957500  0.50658400  1
  C  C15  1  0.94254500  0.08896900  0.73535900  1
  C  C16  1  0.01415500  0.17998700  0.37596500  1
  C  C17  1  0.76141700  0.40755000  0.54342500  1
  C  C18  1  0.73535900  0.94254500  0.08896800  1
  C  C19  1  0.54342500  0.76141700  0.40755000  1
  C  C20  1  0.81194300  0.61112100  0.01345500  1
  C  C21  1  0.40755000  0.54342500  0.76141700  1
  C  C22  1  0.91657300  0.25586000  0.06944500  1
  C  C23  1  0.61112100  0.01345500  0.81194300  1
  C  C24  1  0.37596500  0.01415500  0.17998700  1
  C  C25  1  0.08896900  0.73535900  0.94254500  1
  C  C26  1  0.59244700  0.43702900  0.24367300  1
  C  C27  1  0.17998700  0.37596500  0.01415500  1
  C  C28  1  0.43702900  0.24367300  0.59244700  1
  C  C29  1  0.25586000  0.06944500  0.91657300  1
  C  C30  1  0.24367300  0.59244700  0.43702900  1
  C  C31  1  0.01345500  0.81194300  0.61112100  1
  C  C32  1  0.06944500  0.91657300  0.25586000  1
  C  C33  1  0.88923300  0.69557800  0.48137600  1
  C  C34  1  0.69557800  0.48137600  0.88923300  1
  C  C35  1  0.48137600  0.88923300  0.69557800  1
