# generated using pymatgen
data_Cu13(NiC4)3
_symmetry_space_group_name_H-M   'P 1'
_cell_length_a   6.17082974
_cell_length_b   6.17082974
_cell_length_c   10.80383049
_cell_angle_alpha   73.65199840
_cell_angle_beta   73.65199840
_cell_angle_gamma   58.93222809
_symmetry_Int_Tables_number   1
_chemical_formula_structural   Cu13(NiC4)3
_chemical_formula_sum   'Cu13 Ni3 C12'
_cell_volume   333.46506380
_cell_formula_units_Z   1
loop_
 _symmetry_equiv_pos_site_id
 _symmetry_equiv_pos_as_xyz
  1  'x, y, z'
loop_
 _atom_site_type_symbol
 _atom_site_label
 _atom_site_symmetry_multiplicity
 _atom_site_fract_x
 _atom_site_fract_y
 _atom_site_fract_z
 _atom_site_occupancy
  C  C0  1  0.01045000  0.01045000  0.98809100  1
  C  C1  1  0.11728800  0.11728800  0.63148400  1
  C  C2  1  0.59876500  0.59876500  0.13299100  1
  C  C3  1  0.52553300  0.52553300  0.50761700  1
  C  C4  1  0.55706200  0.55706200  0.80855000  1
  C  C5  1  0.31784800  0.31784800  0.06357000  1
  C  C6  1  0.06088200  0.06088200  0.31307300  1
  C  C7  1  0.56299300  0.06356600  0.31309600  1
  C  C8  1  0.06356600  0.56299300  0.31309600  1
  C  C9  1  0.60966800  0.02617500  0.80719900  1
  C  C10  1  0.02617500  0.60966800  0.80719900  1
  C  C11  1  0.81510100  0.81510100  0.56062900  1
  Ni  Ni12  1  0.40372400  0.40372400  0.19982600  1
  Ni  Ni13  1  0.72436900  0.72436900  0.42582600  1
  Ni  Ni14  1  0.92725200  0.92725200  0.67689200  1
  Cu  Cu15  1  0.17741200  0.17741200  0.43349000  1
  Cu  Cu16  1  0.20235900  0.69525700  0.43178600  1
  Cu  Cu17  1  0.69525700  0.20235900  0.43178600  1
  Cu  Cu18  1  0.42285900  0.93691800  0.18761100  1
  Cu  Cu19  1  0.93691800  0.42285900  0.18761100  1
  Cu  Cu20  1  0.20923200  0.20923200  0.93236800  1
  Cu  Cu21  1  0.43145800  0.43145800  0.70604900  1
  Cu  Cu22  1  0.95063300  0.95063300  0.18536900  1
  Cu  Cu23  1  0.67645500  0.18715500  0.93153800  1
  Cu  Cu24  1  0.18715500  0.67645500  0.93153800  1
  Cu  Cu25  1  0.92252300  0.44570700  0.70115700  1
  Cu  Cu26  1  0.44570700  0.92252300  0.70115700  1
  Cu  Cu27  1  0.67135700  0.67135700  0.93940400  1
