# generated using pymatgen
data_CuNiC5
_symmetry_space_group_name_H-M   'P 1'
_cell_length_a   5.18710700
_cell_length_b   3.04495972
_cell_length_c   5.32765485
_cell_angle_alpha   89.99893535
_cell_angle_beta   72.71592061
_cell_angle_gamma   90.00044898
_symmetry_Int_Tables_number   1
_chemical_formula_structural   CuNiC5
_chemical_formula_sum   'Cu1 Ni1 C5'
_cell_volume   80.34798441
_cell_formula_units_Z   1
loop_
 _symmetry_equiv_pos_site_id
 _symmetry_equiv_pos_as_xyz
  1  'x, y, z'
loop_
 _atom_site_type_symbol
 _atom_site_label
 _atom_site_symmetry_multiplicity
 _atom_site_fract_x
 _atom_site_fract_y
 _atom_site_fract_z
 _atom_site_occupancy
  C  C0  1  0.00000000  0.00000000  0.00000000  1
  Ni  Ni1  1  0.50000000  0.50000000  0.00000000  1
  Cu  Cu2  1  0.50000000  0.00000000  0.50000000  1
  C  C3  1  0.69911700  0.00000200  0.79793400  1
  C  C4  1  0.72851500  0.50001300  0.26791900  1
  C  C5  1  0.27148500  0.49998700  0.73208100  1
  C  C6  1  0.30088300  0.99999800  0.20206600  1
