# generated using pymatgen
data_CuNi7C32
_symmetry_space_group_name_H-M   'P 1'
_cell_length_a   10.51509500
_cell_length_b   10.53306954
_cell_length_c   10.53389319
_cell_angle_alpha   109.43976257
_cell_angle_beta   109.21564294
_cell_angle_gamma   109.58146762
_symmetry_Int_Tables_number   1
_chemical_formula_structural   CuNi7C32
_chemical_formula_sum   'Cu2 Ni14 C64'
_cell_volume   900.06886198
_cell_formula_units_Z   2
loop_
 _symmetry_equiv_pos_site_id
 _symmetry_equiv_pos_as_xyz
  1  'x, y, z'
loop_
 _atom_site_type_symbol
 _atom_site_label
 _atom_site_symmetry_multiplicity
 _atom_site_fract_x
 _atom_site_fract_y
 _atom_site_fract_z
 _atom_site_occupancy
  C  C0  1  0.37824900  0.62547500  0.75267800  1
  C  C1  1  0.12455100  0.75447100  0.87734700  1
  C  C2  1  0.87448400  0.24702000  0.12461800  1
  C  C3  1  0.62235700  0.37262800  0.24658300  1
  C  C4  1  0.74838800  0.62756200  0.87551300  1
  C  C5  1  0.87283000  0.11989700  0.74428400  1
  C  C6  1  0.37488400  0.25298600  0.62942400  1
  C  C7  1  0.75043600  0.12221800  0.37778200  1
  C  C8  1  0.62596600  0.74743900  0.37089700  1
  C  C9  1  0.25236700  0.88069400  0.62443900  1
  C  C10  1  0.12829000  0.88208400  0.25534100  1
  C  C11  1  0.24965300  0.36941900  0.12316100  1
  Ni  Ni12  1  0.87566800  0.75523000  0.62967200  1
  Ni  Ni13  1  0.37827300  0.75123500  0.12825200  1
  Ni  Ni14  1  0.25127000  0.62811800  0.37435500  1
  Ni  Ni15  1  0.99890900  0.99906400  0.99749500  1
  Ni  Ni16  1  0.87347300  0.62767100  0.25376500  1
  Ni  Ni17  1  0.12731800  0.37085000  0.74654500  1
  Ni  Ni18  1  0.49969900  0.49835600  0.99994200  1
  Ni  Ni19  1  0.61888800  0.24897600  0.87176600  1
  Ni  Ni20  1  0.74724900  0.36955200  0.62436400  1
  Ni  Ni21  1  0.12593900  0.24594900  0.37010400  1
  Ni  Ni22  1  0.24865000  0.12587300  0.87433900  1
  Ni  Ni23  1  0.49942000  0.00295800  0.50062100  1
  Ni  Ni24  1  0.37208800  0.12294100  0.24809600  1
  Ni  Ni25  1  0.00362600  0.00303400  0.50202700  1
  C  C26  1  0.50125200  0.00019300  0.00222800  1
  C  C27  1  0.99741200  0.49802800  0.99669000  1
  C  C28  1  0.99895000  0.49859900  0.50064700  1
  C  C29  1  0.49955500  0.49819900  0.49946400  1
  Cu  Cu30  1  0.62580500  0.87499200  0.74879200  1
  Cu  Cu31  1  0.75011600  0.87337100  0.12617400  1
  C  C32  1  0.87735000  0.89446300  0.56938500  1
  C  C33  1  0.49094500  0.88484300  0.79602000  1
  C  C34  1  0.30430400  0.98259700  0.87914500  1
  C  C35  1  0.61022100  0.90862000  0.60293900  1
  C  C36  1  0.80005300  0.91120600  0.30705500  1
  C  C37  1  0.51811400  0.89522700  0.32508400  1
  C  C38  1  0.29915900  0.82051300  0.41807900  1
  C  C39  1  0.39960100  0.58039600  0.37765900  1
  C  C40  1  0.01638200  0.69765500  0.61185400  1
  C  C41  1  0.19662600  0.61927900  0.51664800  1
  C  C42  1  0.60711200  0.69400400  0.99628600  1
  C  C43  1  0.17522900  0.98219900  0.10298500  1
  C  C44  1  0.02150900  0.82087100  0.40074400  1
  C  C45  1  0.38540500  0.80487900  0.98492700  1
  C  C46  1  0.41752600  0.59758400  0.11837500  1
  C  C47  1  0.17957800  0.69673700  0.08327300  1
  C  C48  1  0.58498800  0.69385900  0.70040500  1
  C  C49  1  0.89517300  0.88784100  0.08945200  1
  C  C50  1  0.67908900  0.60236900  0.48448800  1
  C  C51  1  0.10247200  0.48431700  0.17839600  1
  C  C52  1  0.89040900  0.48696200  0.30869500  1
  C  C53  1  0.92524500  0.61773700  0.10417300  1
  C  C54  1  0.32324900  0.42540700  0.80724500  1
  C  C55  1  0.92011600  0.80509500  0.82174500  1
  C  C56  1  0.07921800  0.19794500  0.17629900  1
  C  C57  1  0.68062900  0.58415800  0.20180000  1
  C  C58  1  0.08466700  0.38972900  0.90386400  1
  C  C59  1  0.10847300  0.51220900  0.68997800  1
  C  C60  1  0.90136200  0.51155100  0.82101400  1
  C  C61  1  0.32028400  0.40438300  0.51314100  1
  C  C62  1  0.09940300  0.11825000  0.92151400  1
  C  C63  1  0.41477000  0.31745500  0.29810900  1
  C  C64  1  0.82211000  0.31179400  0.92286000  1
  C  C65  1  0.58482900  0.40492200  0.88967300  1
  C  C66  1  0.61759200  0.19217800  0.01445400  1
  C  C67  1  0.98526600  0.17932300  0.59788800  1
  C  C68  1  0.39726000  0.31974100  0.01709800  1
  C  C69  1  0.80553100  0.00477700  0.89149700  1
  C  C70  1  0.80723300  0.38890200  0.48756100  1
  C  C71  1  0.98927900  0.30945800  0.38935600  1
  C  C72  1  0.60293000  0.42338500  0.61557900  1
  C  C73  1  0.69450200  0.17853300  0.58342400  1
  C  C74  1  0.47976400  0.09451700  0.67986200  1
  C  C75  1  0.19354800  0.07361800  0.67870100  1
  C  C76  1  0.38143500  0.07604800  0.39629900  1
  C  C77  1  0.70216300  0.00634200  0.11640400  1
  C  C78  1  0.51524400  0.11378000  0.19516500  1
  C  C79  1  0.11664000  0.09725900  0.41600000  1
