# generated using pymatgen
data_Cu2Ni4C5
_symmetry_space_group_name_H-M   'P 1'
_cell_length_a   5.21634800
_cell_length_b   5.95862838
_cell_length_c   14.93876427
_cell_angle_alpha   90.75004093
_cell_angle_beta   90.76523014
_cell_angle_gamma   90.96686549
_symmetry_Int_Tables_number   1
_chemical_formula_structural   Cu2Ni4C5
_chemical_formula_sum   'Cu8 Ni16 C20'
_cell_volume   464.18214950
_cell_formula_units_Z   4
loop_
 _symmetry_equiv_pos_site_id
 _symmetry_equiv_pos_as_xyz
  1  'x, y, z'
loop_
 _atom_site_type_symbol
 _atom_site_label
 _atom_site_symmetry_multiplicity
 _atom_site_fract_x
 _atom_site_fract_y
 _atom_site_fract_z
 _atom_site_occupancy
  C  C0  1  0.68344600  0.97668800  0.82838900  1
  C  C1  1  0.66002800  0.99988800  0.33168000  1
  C  C2  1  0.31322500  0.99536000  0.69118900  1
  C  C3  1  0.15405800  0.74529500  0.33299000  1
  C  C4  1  0.12754100  0.75679800  0.82780100  1
  C  C5  1  0.50834400  0.75045600  0.95630500  1
  C  C6  1  0.97335100  0.50474200  0.96687900  1
  C  C7  1  0.37733100  0.50806700  0.70823200  1
  C  C8  1  0.14824300  0.24054200  0.84450700  1
  C  C9  1  0.15503300  0.25658500  0.33332100  1
  C  C10  1  0.51679400  0.24834000  0.96184200  1
  C  C11  1  0.83951700  0.27447100  0.70869800  1
  C  C12  1  0.99680100  0.00096000  0.50122000  1
  C  C13  1  0.32908400  0.99932200  0.16229600  1
  C  C14  1  0.49993500  0.74748000  0.49731500  1
  C  C15  1  0.82478800  0.74561500  0.16858800  1
  C  C16  1  0.00032000  0.50163000  0.50325800  1
  C  C17  1  0.33892300  0.49954100  0.17227200  1
  C  C18  1  0.50152500  0.25094200  0.49438100  1
  C  C19  1  0.83519500  0.24813400  0.16850600  1
  Ni  Ni20  1  0.66158000  0.02132600  0.56153000  1
  Ni  Ni21  1  0.65782000  0.99269800  0.10232000  1
  Ni  Ni22  1  0.99594300  0.98679600  0.24242300  1
  Ni  Ni23  1  0.32865800  0.99685900  0.42192900  1
  Ni  Ni24  1  0.17428300  0.75596900  0.56556500  1
  Ni  Ni25  1  0.16610000  0.75683900  0.10534300  1
  Ni  Ni26  1  0.50397200  0.76221900  0.24041700  1
  Ni  Ni27  1  0.84501000  0.76953800  0.42732600  1
  Ni  Ni28  1  0.66184100  0.49615800  0.56298700  1
  Ni  Ni29  1  0.68156500  0.51632000  0.10047400  1
  Ni  Ni30  1  0.00410200  0.50199800  0.24219800  1
  Ni  Ni31  1  0.32364100  0.47885000  0.42575900  1
  Ni  Ni32  1  0.17341300  0.22913000  0.56550900  1
  Ni  Ni33  1  0.16787700  0.25010000  0.10424500  1
  Ni  Ni34  1  0.48941900  0.22979700  0.23951100  1
  Ni  Ni35  1  0.83333900  0.24224400  0.42705300  1
  Cu  Cu36  1  0.00218500  0.01947300  0.75613200  1
  Cu  Cu37  1  0.35977700  0.00387600  0.90748500  1
  Cu  Cu38  1  0.46999800  0.77432000  0.75462100  1
  Cu  Cu39  1  0.83741800  0.75275800  0.91323600  1
  Cu  Cu40  1  0.05494100  0.48531400  0.75589500  1
  Cu  Cu41  1  0.31355200  0.49350100  0.93079600  1
  Cu  Cu42  1  0.50598500  0.23537500  0.73826600  1
  Cu  Cu43  1  0.83743300  0.24768400  0.91597700  1
