# generated using pymatgen
data_CuNiC10
_symmetry_space_group_name_H-M   'P 1'
_cell_length_a   8.39419796
_cell_length_b   8.39419796
_cell_length_c   8.39419839
_cell_angle_alpha   61.67432466
_cell_angle_beta   61.67432466
_cell_angle_gamma   61.67432644
_symmetry_Int_Tables_number   1
_chemical_formula_structural   CuNiC10
_chemical_formula_sum   'Cu3 Ni3 C30'
_cell_volume   433.93703571
_cell_formula_units_Z   3
loop_
 _symmetry_equiv_pos_site_id
 _symmetry_equiv_pos_as_xyz
  1  'x, y, z'
loop_
 _atom_site_type_symbol
 _atom_site_label
 _atom_site_symmetry_multiplicity
 _atom_site_fract_x
 _atom_site_fract_y
 _atom_site_fract_z
 _atom_site_occupancy
  Ni  Ni0  1  0.99889100  0.99889100  0.99889100  1
  Ni  Ni1  1  0.14217300  0.14217300  0.14217300  1
  Ni  Ni2  1  0.50057100  0.50057100  0.50057100  1
  Cu  Cu3  1  0.64697900  0.64697900  0.64697900  1
  Cu  Cu4  1  0.85356800  0.85356800  0.85356800  1
  Cu  Cu5  1  0.35297300  0.35297300  0.35297300  1
  C  C6  1  0.95220900  0.25026000  0.54602100  1
  C  C7  1  0.54602100  0.95220900  0.25026000  1
  C  C8  1  0.25026000  0.54602100  0.95220900  1
  C  C9  1  0.75020200  0.45166500  0.04997700  1
  C  C10  1  0.45166500  0.04997700  0.75020200  1
  C  C11  1  0.04997700  0.75020200  0.45166500  1
  C  C12  1  0.50599100  0.10560600  0.32468600  1
  C  C13  1  0.32468600  0.50599100  0.10560600  1
  C  C14  1  0.10560600  0.32468600  0.50599100  1
  C  C15  1  0.93945900  0.09392800  0.74988800  1
  C  C16  1  0.99290900  0.17991200  0.39025900  1
  C  C17  1  0.74790600  0.40540900  0.56319200  1
  C  C18  1  0.74988800  0.93945900  0.09392800  1
  C  C19  1  0.56319200  0.74790600  0.40540900  1
  C  C20  1  0.82474200  0.60596300  0.00631600  1
  C  C21  1  0.40540900  0.56319200  0.74790600  1
  C  C22  1  0.90699100  0.24792800  0.06273400  1
  C  C23  1  0.60596300  0.00631600  0.82474200  1
  C  C24  1  0.39025900  0.99290900  0.17991200  1
  C  C25  1  0.09392800  0.74988800  0.93945900  1
  C  C26  1  0.59494100  0.43783800  0.25268500  1
  C  C27  1  0.17991200  0.39025900  0.99290900  1
  C  C28  1  0.43783800  0.25268500  0.59494100  1
  C  C29  1  0.24792800  0.06273400  0.90699100  1
  C  C30  1  0.25268500  0.59494100  0.43783800  1
  C  C31  1  0.00631600  0.82474200  0.60596300  1
  C  C32  1  0.06273400  0.90699100  0.24792800  1
  C  C33  1  0.89464600  0.67818300  0.49238700  1
  C  C34  1  0.67818300  0.49238700  0.89464600  1
  C  C35  1  0.49238700  0.89464600  0.67818300  1
