# generated using pymatgen
data_Cu14Ni2C15
_symmetry_space_group_name_H-M   'P 1'
_cell_length_a   7.89692056
_cell_length_b   7.89692056
_cell_length_c   13.52892312
_cell_angle_alpha   65.39001733
_cell_angle_beta   65.39001733
_cell_angle_gamma   52.75186236
_symmetry_Int_Tables_number   1
_chemical_formula_structural   Cu14Ni2C15
_chemical_formula_sum   'Cu28 Ni4 C30'
_cell_volume   594.62549087
_cell_formula_units_Z   2
loop_
 _symmetry_equiv_pos_site_id
 _symmetry_equiv_pos_as_xyz
  1  'x, y, z'
loop_
 _atom_site_type_symbol
 _atom_site_label
 _atom_site_symmetry_multiplicity
 _atom_site_fract_x
 _atom_site_fract_y
 _atom_site_fract_z
 _atom_site_occupancy
  C  C0  1  0.14482600  0.38220800  0.23067100  1
  C  C1  1  0.61779200  0.85517400  0.26932900  1
  C  C2  1  0.85517400  0.61779200  0.76932900  1
  C  C3  1  0.38220800  0.14482600  0.73067100  1
  Ni  Ni4  1  0.14444100  0.85578600  0.13956400  1
  Ni  Ni5  1  0.14421400  0.85555900  0.36043600  1
  Ni  Ni6  1  0.85555900  0.14421400  0.86043600  1
  Ni  Ni7  1  0.85578600  0.14444100  0.63956400  1
  Cu  Cu8  1  0.85447700  0.71035000  0.06809100  1
  Cu  Cu9  1  0.28965000  0.14552300  0.43190900  1
  Cu  Cu10  1  0.14552300  0.28965000  0.93190900  1
  Cu  Cu11  1  0.71035000  0.85447700  0.56809100  1
  Cu  Cu12  1  0.34028700  0.08642600  0.10184700  1
  Cu  Cu13  1  0.91357400  0.65971300  0.39815300  1
  Cu  Cu14  1  0.65971300  0.91357400  0.89815300  1
  Cu  Cu15  1  0.08642600  0.34028700  0.60184700  1
  Cu  Cu16  1  0.53095100  0.46962600  0.11393000  1
  Cu  Cu17  1  0.53037400  0.46904900  0.38607000  1
  Cu  Cu18  1  0.46904900  0.53037400  0.88607000  1
  Cu  Cu19  1  0.46962600  0.53095100  0.61393000  1
  Cu  Cu20  1  0.78567000  0.53585700  0.12461500  1
  Cu  Cu21  1  0.46414300  0.21433000  0.37538500  1
  Cu  Cu22  1  0.21433000  0.46414300  0.87538500  1
  Cu  Cu23  1  0.53585700  0.78567000  0.62461500  1
  Cu  Cu24  1  0.73719000  0.37810200  0.01891200  1
  Cu  Cu25  1  0.62189800  0.26281000  0.48108800  1
  Cu  Cu26  1  0.26281000  0.62189800  0.98108800  1
  Cu  Cu27  1  0.37810200  0.73719000  0.51891200  1
  Cu  Cu28  1  0.55187600  0.09370900  0.05844300  1
  Cu  Cu29  1  0.90629100  0.44812400  0.44155700  1
  Cu  Cu30  1  0.44812400  0.90629100  0.94155700  1
  Cu  Cu31  1  0.09370900  0.55187600  0.55844300  1
  Cu  Cu32  1  0.80513800  0.14296100  0.15210500  1
  Cu  Cu33  1  0.85703900  0.19486200  0.34789500  1
  Cu  Cu34  1  0.19486200  0.85703900  0.84789500  1
  Cu  Cu35  1  0.14296100  0.80513800  0.65210500  1
  C  C36  1  0.21213700  0.01539400  0.05417700  1
  C  C37  1  0.98460600  0.78786300  0.44582300  1
  C  C38  1  0.78786300  0.98460600  0.94582300  1
  C  C39  1  0.01539400  0.21213700  0.55417700  1
  C  C40  1  0.23550300  0.64709900  0.10836300  1
  C  C41  1  0.35290100  0.76449700  0.39163700  1
  C  C42  1  0.76449700  0.35290100  0.89163700  1
  C  C43  1  0.64709900  0.23550300  0.60836300  1
  C  C44  1  0.88643300  0.97450600  0.18275300  1
  C  C45  1  0.02549400  0.11356700  0.31724700  1
  C  C46  1  0.11356700  0.02549400  0.81724700  1
  C  C47  1  0.97450600  0.88643300  0.68275300  1
  C  C48  1  0.23547200  0.76452800  0.25000000  1
  C  C49  1  0.76452800  0.23547200  0.75000000  1
  C  C50  1  0.83978200  0.60642600  0.13882600  1
  C  C51  1  0.39357400  0.16021800  0.36117400  1
  C  C52  1  0.16021800  0.39357400  0.86117400  1
  C  C53  1  0.60642600  0.83978200  0.63882600  1
  C  C54  1  0.42347800  0.11864500  0.12213500  1
  C  C55  1  0.88135500  0.57652200  0.37786500  1
  C  C56  1  0.57652200  0.88135500  0.87786500  1
  C  C57  1  0.11864500  0.42347800  0.62213500  1
  C  C58  1  0.69309700  0.38634500  0.09866700  1
  C  C59  1  0.61365500  0.30690300  0.40133300  1
  C  C60  1  0.30690300  0.61365500  0.90133300  1
  C  C61  1  0.38634500  0.69309700  0.59866700  1
