# generated using pymatgen
data_Cu14Ni3C32
_symmetry_space_group_name_H-M   'P 1'
_cell_length_a   11.62343503
_cell_length_b   11.62343503
_cell_length_c   11.88803757
_cell_angle_alpha   65.79931359
_cell_angle_beta   114.20068641
_cell_angle_gamma   111.06151712
_symmetry_Int_Tables_number   1
_chemical_formula_structural   Cu14Ni3C32
_chemical_formula_sum   'Cu28 Ni6 C64'
_cell_volume   1300.40807566
_cell_formula_units_Z   2
loop_
 _symmetry_equiv_pos_site_id
 _symmetry_equiv_pos_as_xyz
  1  'x, y, z'
loop_
 _atom_site_type_symbol
 _atom_site_label
 _atom_site_symmetry_multiplicity
 _atom_site_fract_x
 _atom_site_fract_y
 _atom_site_fract_z
 _atom_site_occupancy
  Ni  Ni0  1  0.92842551  0.07157449  0.64267737  1
  Ni  Ni1  1  0.78566754  0.21433246  0.92898296  1
  Ni  Ni2  1  0.50004646  0.49995354  0.49958904  1
  Ni  Ni3  1  0.35728949  0.64271051  0.78589363  1
  Ni  Ni4  1  0.21413825  0.78586175  0.07129333  1
  Ni  Ni5  1  0.07157575  0.92842425  0.35727867  1
  Cu  Cu6  1  0.71848247  0.00488553  0.78556803  1
  Cu  Cu7  1  0.99511447  0.28151753  0.78556803  1
  Cu  Cu8  1  0.92704030  0.35153164  0.43157208  1
  Cu  Cu9  1  0.20948360  0.06662499  0.85684005  1
  Cu  Cu10  1  0.64846836  0.07295970  0.43157208  1
  Cu  Cu11  1  0.50561759  0.21990359  0.71428600  1
  Cu  Cu12  1  0.93337501  0.79051640  0.85684005  1
  Cu  Cu13  1  0.78009641  0.49438241  0.71428600  1
  Cu  Cu14  1  0.57501256  0.14430093  0.06932878  1
  Cu  Cu15  1  0.86159399  0.86161490  0.49993275  1
  Cu  Cu16  1  0.43001493  0.28929856  0.35924222  1
  Cu  Cu17  1  0.85569907  0.42498744  0.06932878  1
  Cu  Cu18  1  0.29059953  0.43276747  0.64300397  1
  Cu  Cu19  1  0.14732990  0.57587999  0.92863825  1
  Cu  Cu20  1  0.13838510  0.13840601  0.49993275  1
  Cu  Cu21  1  0.56723253  0.70940047  0.64300397  1
  Cu  Cu22  1  0.42412001  0.85267010  0.92863825  1
  Cu  Cu23  1  0.71070144  0.56998507  0.35924222  1
  Cu  Cu24  1  0.79098029  0.93384968  0.14316844  1
  Cu  Cu25  1  0.07623140  0.64766101  0.57173095  1
  Cu  Cu26  1  0.06615032  0.20901971  0.14316844  1
  Cu  Cu27  1  0.21956368  0.50526629  0.28540256  1
  Cu  Cu28  1  0.35233899  0.92376860  0.57173095  1
  Cu  Cu29  1  0.63724664  0.64132630  0.99699992  1
  Cu  Cu30  1  0.49473371  0.78043632  0.28540256  1
  Cu  Cu31  1  0.35867370  0.36275336  0.99699992  1
  Cu  Cu32  1  0.00398997  0.71827497  0.21428600  1
  Cu  Cu33  1  0.28172503  0.99601003  0.21428600  1
  C  C34  1  0.85775416  0.14224584  0.28592532  1
  C  C35  1  0.71455249  0.28544751  0.57232554  1
  C  C36  1  0.57116251  0.42883749  0.85624546  1
  C  C37  1  0.64285700  0.35714300  0.21428600  1
  C  C38  1  0.00018687  0.99981313  0.00006089  1
  C  C39  1  0.42796084  0.57203916  0.14264568  1
  C  C40  1  0.14285700  0.85714300  0.71428600  1
  C  C41  1  0.28552713  0.71447287  0.42851011  1
  C  C42  1  0.89573383  0.10426617  0.96497783  1
  C  C43  1  0.96509417  0.03490583  0.82596676  1
  C  C44  1  0.60557101  0.03417622  0.92938678  1
  C  C45  1  0.96582378  0.39442899  0.92938678  1
  C  C46  1  0.89262099  0.10737901  0.46075893  1
  C  C47  1  0.74989968  0.25010032  0.74782177  1
  C  C48  1  0.96308716  0.03691284  0.32144242  1
  C  C49  1  0.67620357  0.32379643  0.89216733  1
  C  C50  1  0.81945890  0.18054110  0.60731635  1
  C  C51  1  0.95701358  0.67129858  0.71428600  1
  C  C52  1  0.52861435  0.10003836  0.57092553  1
  C  C53  1  0.89996164  0.47138565  0.57092553  1
  C  C54  1  0.32870142  0.04298642  0.71428600  1
  C  C55  1  0.38575236  0.24290035  0.85764547  1
  C  C56  1  0.75709965  0.61424764  0.85764547  1
  C  C57  1  0.46625510  0.53374490  0.82125465  1
  C  C58  1  0.82228031  0.17771969  0.11092304  1
  C  C59  1  0.53581432  0.46418568  0.68075023  1
  C  C60  1  0.39309401  0.60690599  0.96781207  1
  C  C61  1  0.67910912  0.32089088  0.39649818  1
  C  C62  1  0.75218558  0.24781442  0.25028929  1
  C  C63  1  0.60951043  0.39048957  0.53640467  1
  C  C64  1  0.10827168  0.25167695  0.64242204  1
  C  C65  1  0.89178164  0.74849314  0.35720194  1
  C  C66  1  0.82221262  0.53649862  0.21428600  1
  C  C67  1  0.53739095  0.82255768  0.78614896  1
  C  C68  1  0.17744232  0.46260905  0.78614896  1
  C  C69  1  0.68014399  0.68010978  0.49918522  1
  C  C70  1  0.46350138  0.17778738  0.21428600  1
  C  C71  1  0.25150686  0.10821836  0.35720194  1
  C  C72  1  0.31989022  0.31985601  0.49918522  1
  C  C73  1  0.74832305  0.89172832  0.64242204  1
  C  C74  1  0.32062083  0.67937917  0.60260424  1
  C  C75  1  0.17774637  0.82225363  0.88827412  1
  C  C76  1  0.46343469  0.53656531  0.31764896  1
  C  C77  1  0.60660488  0.39339512  0.03207282  1
  C  C78  1  0.53352842  0.46647158  0.17828171  1
  C  C79  1  0.38998017  0.61001983  0.46359417  1
  C  C80  1  0.24736088  0.75263912  0.74939402  1
  C  C81  1  0.81445866  0.81429308  0.00012422  1
  C  C82  1  0.10000708  0.52874466  0.42844778  1
  C  C83  1  0.24324574  0.38532908  0.14319127  1
  C  C84  1  0.47125534  0.89999292  0.42844778  1
  C  C85  1  0.04246826  0.32895692  0.28537973  1
  C  C86  1  0.18570692  0.18554134  0.00012422  1
  C  C87  1  0.61467092  0.75675426  0.14319127  1
  C  C88  1  0.67104308  0.95753174  0.28537973  1
  C  C89  1  0.18099055  0.81900945  0.39305949  1
  C  C90  1  0.03835412  0.96164588  0.67917798  1
  C  C91  1  0.32262684  0.67737316  0.10712858  1
  C  C92  1  0.25040972  0.74959028  0.25442759  1
  C  C93  1  0.10796763  0.89203237  0.54029688  1
  C  C94  1  0.39393336  0.96579186  0.07136906  1
  C  C95  1  0.03420814  0.60606664  0.07136906  1
  C  C96  1  0.03530428  0.96469572  0.17414341  1
  C  C97  1  0.10472345  0.89527655  0.03551151  1
