# generated using pymatgen
data_CuNiC11
_symmetry_space_group_name_H-M   'P 1'
_cell_length_a   6.13820900
_cell_length_b   5.01818200
_cell_length_c   8.32324687
_cell_angle_alpha   84.11071737
_cell_angle_beta   90.00000000
_cell_angle_gamma   90.00000000
_symmetry_Int_Tables_number   1
_chemical_formula_structural   CuNiC11
_chemical_formula_sum   'Cu2 Ni2 C22'
_cell_volume   255.02490309
_cell_formula_units_Z   2
loop_
 _symmetry_equiv_pos_site_id
 _symmetry_equiv_pos_as_xyz
  1  'x, y, z'
loop_
 _atom_site_type_symbol
 _atom_site_label
 _atom_site_symmetry_multiplicity
 _atom_site_fract_x
 _atom_site_fract_y
 _atom_site_fract_z
 _atom_site_occupancy
  C  C0  1  0.75000000  0.24142900  0.89472800  1
  C  C1  1  0.00153200  0.74747100  0.74948100  1
  C  C2  1  0.49846800  0.74747100  0.74948100  1
  C  C3  1  0.50153200  0.25252900  0.25051900  1
  C  C4  1  0.99846800  0.25252900  0.25051900  1
  C  C5  1  0.25000000  0.75857100  0.10527200  1
  Ni  Ni6  1  0.25000000  0.19951800  0.68519600  1
  Ni  Ni7  1  0.75000000  0.80048200  0.31480400  1
  Cu  Cu8  1  0.75000000  0.27684100  0.56908200  1
  Cu  Cu9  1  0.25000000  0.72315900  0.43091800  1
  C  C10  1  0.25000000  0.28608200  0.95994900  1
  C  C11  1  0.75000000  0.71391800  0.04005100  1
  C  C12  1  0.75000000  0.64161400  0.88950100  1
  C  C13  1  0.25000000  0.02927700  0.91088800  1
  C  C14  1  0.25000000  0.47312900  0.82234900  1
  C  C15  1  0.94753500  0.18088000  0.69822000  1
  C  C16  1  0.55246500  0.18088000  0.69822000  1
  C  C17  1  0.75000000  0.60294000  0.52458800  1
  C  C18  1  0.25000000  0.86675500  0.59646900  1
  C  C19  1  0.75000000  0.13324500  0.40353100  1
  C  C20  1  0.25000000  0.39706000  0.47541200  1
  C  C21  1  0.44753500  0.81912000  0.30178000  1
  C  C22  1  0.05246500  0.81912000  0.30178000  1
  C  C23  1  0.75000000  0.52687100  0.17765100  1
  C  C24  1  0.75000000  0.97072300  0.08911200  1
  C  C25  1  0.25000000  0.35838600  0.11049900  1
