# generated using pymatgen
data_Cu3(NiC6)2
_symmetry_space_group_name_H-M   'P 1'
_cell_length_a   9.19060730
_cell_length_b   9.19060730
_cell_length_c   9.19060759
_cell_angle_alpha   59.99873463
_cell_angle_beta   59.99873463
_cell_angle_gamma   59.99873810
_symmetry_Int_Tables_number   1
_chemical_formula_structural   Cu3(NiC6)2
_chemical_formula_sum   'Cu6 Ni4 C24'
_cell_volume   548.91512351
_cell_formula_units_Z   2
loop_
 _symmetry_equiv_pos_site_id
 _symmetry_equiv_pos_as_xyz
  1  'x, y, z'
loop_
 _atom_site_type_symbol
 _atom_site_label
 _atom_site_symmetry_multiplicity
 _atom_site_fract_x
 _atom_site_fract_y
 _atom_site_fract_z
 _atom_site_occupancy
  Ni  Ni0  1  0.85987000  0.85987000  0.85987000  1
  Ni  Ni1  1  0.64013000  0.64013000  0.64013000  1
  Ni  Ni2  1  0.14013000  0.14013000  0.14013000  1
  Ni  Ni3  1  0.35987000  0.35987000  0.35987000  1
  Cu  Cu4  1  0.25000000  0.54595700  0.95404300  1
  Cu  Cu5  1  0.45404300  0.04595700  0.75000000  1
  Cu  Cu6  1  0.04595700  0.75000000  0.45404300  1
  Cu  Cu7  1  0.95404300  0.25000000  0.54595700  1
  Cu  Cu8  1  0.54595700  0.95404300  0.25000000  1
  Cu  Cu9  1  0.75000000  0.45404300  0.04595700  1
  C  C10  1  0.40038600  0.55851600  0.78020600  1
  C  C11  1  0.21979400  0.59961400  0.44148400  1
  C  C12  1  0.40195800  0.98928400  0.19392600  1
  C  C13  1  0.51071600  0.09804200  0.30607400  1
  C  C14  1  0.09961400  0.71979400  0.94148400  1
  C  C15  1  0.28020600  0.05851600  0.90038600  1
  C  C16  1  0.44148400  0.21979400  0.59961400  1
  C  C17  1  0.69392600  0.48928400  0.90195800  1
  C  C18  1  0.01071600  0.80607400  0.59804200  1
  C  C19  1  0.80607400  0.59804200  0.01071600  1
  C  C20  1  0.90195800  0.69392600  0.48928400  1
  C  C21  1  0.05851600  0.90038600  0.28020600  1
  C  C22  1  0.94148400  0.09961400  0.71979400  1
  C  C23  1  0.19392600  0.40195800  0.98928400  1
  C  C24  1  0.09804200  0.30607400  0.51071600  1
  C  C25  1  0.30607400  0.51071600  0.09804200  1
  C  C26  1  0.98928400  0.19392600  0.40195800  1
  C  C27  1  0.55851600  0.78020600  0.40038600  1
  C  C28  1  0.71979400  0.94148400  0.09961400  1
  C  C29  1  0.90038600  0.28020600  0.05851600  1
  C  C30  1  0.59804200  0.01071600  0.80607400  1
  C  C31  1  0.48928400  0.90195800  0.69392600  1
  C  C32  1  0.78020600  0.40038600  0.55851600  1
  C  C33  1  0.59961400  0.44148400  0.21979400  1
