# generated using pymatgen
data_Cu8Ni4C63
_symmetry_space_group_name_H-M   'P 1'
_cell_length_a   9.11817400
_cell_length_b   9.53811372
_cell_length_c   14.62450959
_cell_angle_alpha   91.71725706
_cell_angle_beta   107.68476223
_cell_angle_gamma   117.57748946
_symmetry_Int_Tables_number   1
_chemical_formula_structural   Cu8Ni4C63
_chemical_formula_sum   'Cu8 Ni4 C63'
_cell_volume   1051.96685624
_cell_formula_units_Z   1
loop_
 _symmetry_equiv_pos_site_id
 _symmetry_equiv_pos_as_xyz
  1  'x, y, z'
loop_
 _atom_site_type_symbol
 _atom_site_label
 _atom_site_symmetry_multiplicity
 _atom_site_fract_x
 _atom_site_fract_y
 _atom_site_fract_z
 _atom_site_occupancy
  C  C0  1  0.90424000  0.14205200  0.37319600  1
  C  C1  1  0.55799000  0.73143300  0.21606100  1
  C  C2  1  0.37754900  0.71465300  0.42303300  1
  C  C3  1  0.90218900  0.68301700  0.86489200  1
  C  C4  1  0.07988000  0.30250300  0.10248000  1
  C  C5  1  0.85898800  0.49556300  0.44208700  1
  C  C6  1  0.61088200  0.23727000  0.72127400  1
  C  C7  1  0.40070500  0.23177100  0.92487000  1
  C  C8  1  0.08057300  0.81436700  0.60083100  1
  C  C9  1  0.83762000  0.63786200  0.08785200  1
  C  C10  1  0.62016700  0.09657200  0.14361800  1
  C  C11  1  0.84502800  0.14446900  0.59168300  1
  C  C12  1  0.57667200  0.56190500  0.62435700  1
  C  C13  1  0.35298500  0.38170600  0.34507700  1
  C  C14  1  0.13948100  0.89473000  0.37647700  1
  C  C15  1  0.35765900  0.88129700  0.83756600  1
  C  C16  1  0.12815200  0.36813100  0.87484300  1
  Ni  Ni17  1  0.97392800  0.01206700  0.19623500  1
  Ni  Ni18  1  0.55641800  0.15232400  0.36708400  1
  Ni  Ni19  1  0.96840100  0.51588000  0.69780000  1
  Ni  Ni20  1  0.54417100  0.63428000  0.86151800  1
  Cu  Cu21  1  0.24537100  0.88566900  0.08857100  1
  Cu  Cu22  1  0.74343300  0.76851100  0.45522600  1
  Cu  Cu23  1  0.44722200  0.39263300  0.11730500  1
  Cu  Cu24  1  0.00107500  0.47977100  0.28027000  1
  Cu  Cu25  1  0.21753500  0.18034900  0.57459500  1
  Cu  Cu26  1  0.75686100  0.27423600  0.95835300  1
  Cu  Cu27  1  0.44444800  0.87705400  0.61396300  1
  Cu  Cu28  1  0.00916400  0.97359300  0.77485600  1
  C  C29  1  0.96413900  0.83562800  0.22394600  1
  C  C30  1  0.78864700  0.00680900  0.19993000  1
  C  C31  1  0.50255000  0.26235400  0.11359300  1
  C  C32  1  0.71848900  0.19852700  0.47200600  1
  C  C33  1  0.63150400  0.13315900  0.28253400  1
  C  C34  1  0.40940500  0.85294100  0.12884800  1
  C  C35  1  0.74079500  0.92898500  0.47409500  1
  C  C36  1  0.90783700  0.80079000  0.42848100  1
  C  C37  1  0.61325100  0.56076000  0.13059900  1
  C  C38  1  0.37125100  0.98763800  0.35490800  1
  C  C39  1  0.06723500  0.72047100  0.05200500  1
  C  C40  1  0.00619400  0.04045300  0.09783500  1
  C  C41  1  0.57135000  0.65182700  0.36843500  1
  C  C42  1  0.37739700  0.40352600  0.19946300  1
  C  C43  1  0.95257600  0.33267200  0.72226700  1
  C  C44  1  0.29626100  0.36607000  0.01967000  1
  C  C45  1  0.77648000  0.50130400  0.69227300  1
  C  C46  1  0.49028300  0.74197700  0.60698300  1
  C  C47  1  0.93635300  0.51030500  0.17325400  1
  C  C48  1  0.18174600  0.47964400  0.28950900  1
  C  C49  1  0.53841900  0.31420800  0.36664300  1
  C  C50  1  0.71272100  0.67888800  0.96139400  1
  C  C51  1  0.07333600  0.65180300  0.35040100  1
  C  C52  1  0.59562100  0.61351700  0.76700600  1
  C  C53  1  0.21835100  0.10094400  0.48173200  1
  C  C54  1  0.40353600  0.31583700  0.64128500  1
  C  C55  1  0.72241400  0.41454400  0.97696900  1
  C  C56  1  0.93670900  0.34245800  0.93952600  1
  C  C57  1  0.13310900  0.13911700  0.30165500  1
  C  C58  1  0.61730800  0.04213500  0.63171500  1
  C  C59  1  0.35982000  0.47077300  0.85575800  1
  C  C60  1  0.39653800  0.45584400  0.48385300  1
  C  C61  1  0.07658800  0.23708800  0.54809200  1
  C  C62  1  0.01169100  0.55107800  0.60166500  1
  C  C63  1  0.60159700  0.15050000  0.86641500  1
  C  C64  1  0.75606100  0.69258500  0.54783500  1
  C  C65  1  0.37729000  0.88881700  0.69768100  1
  C  C66  1  0.29769700  0.85625100  0.51817900  1
  C  C67  1  0.94565700  0.01422900  0.67032300  1
  C  C68  1  0.19746000  0.99167000  0.78321000  1
  C  C69  1  0.50804900  0.78538400  0.86880600  1
  C  C70  1  0.07014300  0.14262600  0.84571000  1
  C  C71  1  0.25170000  0.88755700  0.96739200  1
  C  C72  1  0.12330500  0.64062700  0.80342600  1
  C  C73  1  0.43900700  0.00642600  0.98407400  1
  C  C74  1  0.77234300  0.19608700  0.05015300  1
