# generated using pymatgen
data_Cu9Ni3C17
_symmetry_space_group_name_H-M   'P 1'
_cell_length_a   10.49844400
_cell_length_b   8.79770800
_cell_length_c   12.15342154
_cell_angle_alpha   81.92439946
_cell_angle_beta   90.00000000
_cell_angle_gamma   90.00000000
_symmetry_Int_Tables_number   1
_chemical_formula_structural   Cu9Ni3C17
_chemical_formula_sum   'Cu36 Ni12 C68'
_cell_volume   1111.38593214
_cell_formula_units_Z   4
loop_
 _symmetry_equiv_pos_site_id
 _symmetry_equiv_pos_as_xyz
  1  'x, y, z'
loop_
 _atom_site_type_symbol
 _atom_site_label
 _atom_site_symmetry_multiplicity
 _atom_site_fract_x
 _atom_site_fract_y
 _atom_site_fract_z
 _atom_site_occupancy
  C  C0  1  0.38099200  0.88303400  0.34684300  1
  C  C1  1  0.88099200  0.11696600  0.15315700  1
  C  C2  1  0.61900800  0.11696600  0.65315700  1
  C  C3  1  0.11900800  0.88303400  0.84684300  1
  C  C4  1  0.65015100  0.70614800  0.41802900  1
  C  C5  1  0.15015100  0.29385200  0.08197100  1
  C  C6  1  0.34984900  0.29385200  0.58197100  1
  C  C7  1  0.84984900  0.70614800  0.91802900  1
  C  C8  1  0.48748800  0.80071100  0.60088900  1
  C  C9  1  0.98748800  0.19928900  0.89911100  1
  C  C10  1  0.51251200  0.19928900  0.39911100  1
  C  C11  1  0.01251200  0.80071100  0.10088900  1
  C  C12  1  0.39592100  0.56349600  0.62521200  1
  C  C13  1  0.89592100  0.43650400  0.87478800  1
  C  C14  1  0.60407900  0.43650400  0.37478800  1
  C  C15  1  0.10407900  0.56349600  0.12521200  1
  C  C16  1  0.22311500  0.09289500  0.39581700  1
  C  C17  1  0.72311500  0.90710500  0.10418300  1
  C  C18  1  0.77688500  0.90710500  0.60418300  1
  C  C19  1  0.27688500  0.09289500  0.89581700  1
  C  C20  1  0.13981100  0.93124900  0.39726600  1
  C  C21  1  0.63981100  0.06875100  0.10273400  1
  C  C22  1  0.86018900  0.06875100  0.60273400  1
  C  C23  1  0.36018900  0.93124900  0.89726600  1
  C  C24  1  0.17284300  0.04237100  0.27782400  1
  C  C25  1  0.67284300  0.95762900  0.22217600  1
  C  C26  1  0.82715700  0.95762900  0.72217600  1
  C  C27  1  0.32715700  0.04237100  0.77782400  1
  C  C28  1  0.33980500  0.02297200  0.14789400  1
  C  C29  1  0.83980500  0.97702800  0.35210600  1
  C  C30  1  0.66019500  0.97702800  0.85210600  1
  C  C31  1  0.16019500  0.02297200  0.64789400  1
  C  C32  1  0.28074900  0.84881000  0.15148700  1
  C  C33  1  0.78074900  0.15119000  0.34851300  1
  C  C34  1  0.71925100  0.15119000  0.84851300  1
  C  C35  1  0.21925100  0.84881000  0.65148700  1
  C  C36  1  0.43373900  0.87138500  0.13377300  1
  C  C37  1  0.93373900  0.12861500  0.36622700  1
  C  C38  1  0.56626100  0.12861500  0.86622700  1
  C  C39  1  0.06626100  0.87138500  0.63377300  1
  C  C40  1  0.31757900  0.61855300  0.29447300  1
  C  C41  1  0.81757900  0.38144700  0.20552700  1
  C  C42  1  0.68242100  0.38144700  0.70552700  1
  C  C43  1  0.18242100  0.61855300  0.79447300  1
  C  C44  1  0.29359700  0.61062200  0.43094100  1
  C  C45  1  0.79359700  0.38937800  0.06905900  1
  C  C46  1  0.70640300  0.38937800  0.56905900  1
  C  C47  1  0.20640300  0.61062200  0.93094100  1
  C  C48  1  0.18522900  0.69166500  0.34129800  1
  C  C49  1  0.68522900  0.30833500  0.15870200  1
  C  C50  1  0.81477100  0.30833500  0.65870200  1
  C  C51  1  0.31477100  0.69166500  0.84129800  1
  C  C52  1  0.03083500  0.46084800  0.70693700  1
  C  C53  1  0.53083500  0.53915200  0.79306300  1
  C  C54  1  0.96916500  0.53915200  0.29306300  1
  C  C55  1  0.46916500  0.46084800  0.20693700  1
  C  C56  1  0.15669100  0.46247900  0.63799400  1
  C  C57  1  0.65669100  0.53752100  0.86200600  1
  C  C58  1  0.84330900  0.53752100  0.36200600  1
  C  C59  1  0.34330900  0.46247900  0.13799400  1
  C  C60  1  0.92950800  0.75626000  0.45841800  1
  C  C61  1  0.42950800  0.24374000  0.04158200  1
  C  C62  1  0.07049200  0.24374000  0.54158200  1
  C  C63  1  0.57049200  0.75626000  0.95841800  1
  C  C64  1  0.03083800  0.66827000  0.54177800  1
  C  C65  1  0.53083800  0.33173000  0.95822200  1
  C  C66  1  0.96916200  0.33173000  0.45822200  1
  C  C67  1  0.46916200  0.66827000  0.04177800  1
  Ni  Ni68  1  0.20783200  0.00057400  0.35483900  1
  Ni  Ni69  1  0.70783200  0.99942600  0.14516100  1
  Ni  Ni70  1  0.79216800  0.99942600  0.64516100  1
  Ni  Ni71  1  0.29216800  0.00057400  0.85483900  1
  Ni  Ni72  1  0.35724400  0.90815100  0.17564100  1
  Ni  Ni73  1  0.85724400  0.09184900  0.32435900  1
  Ni  Ni74  1  0.64275600  0.09184900  0.82435900  1
  Ni  Ni75  1  0.14275600  0.90815100  0.67564100  1
  Ni  Ni76  1  0.28098400  0.67716600  0.35487600  1
  Ni  Ni77  1  0.78098400  0.32283400  0.14512400  1
  Ni  Ni78  1  0.71901600  0.32283400  0.64512400  1
  Ni  Ni79  1  0.21901600  0.67716600  0.85487600  1
  Cu  Cu80  1  0.54278300  0.76696600  0.33848200  1
  Cu  Cu81  1  0.04278300  0.23303400  0.16151800  1
  Cu  Cu82  1  0.45721700  0.23303400  0.66151800  1
  Cu  Cu83  1  0.95721700  0.76696600  0.83848200  1
  Cu  Cu84  1  0.77875200  0.77783000  0.38904500  1
  Cu  Cu85  1  0.27875200  0.22217000  0.11095500  1
  Cu  Cu86  1  0.22124800  0.22217000  0.61095500  1
  Cu  Cu87  1  0.72124800  0.77783000  0.88904500  1
  Cu  Cu88  1  0.65659100  0.52936300  0.43500400  1
  Cu  Cu89  1  0.15659100  0.47063700  0.06499600  1
  Cu  Cu90  1  0.34340900  0.47063700  0.56499600  1
  Cu  Cu91  1  0.84340900  0.52936300  0.93500400  1
  Cu  Cu92  1  0.61605200  0.75264600  0.54207100  1
  Cu  Cu93  1  0.11605200  0.24735400  0.95792900  1
  Cu  Cu94  1  0.38394800  0.24735400  0.45792900  1
  Cu  Cu95  1  0.88394800  0.75264600  0.04207100  1
  Cu  Cu96  1  0.38925300  0.86057800  0.51275100  1
  Cu  Cu97  1  0.88925300  0.13942200  0.98724900  1
  Cu  Cu98  1  0.61074700  0.13942200  0.48724900  1
  Cu  Cu99  1  0.11074700  0.86057800  0.01275100  1
  Cu  Cu100  1  0.52426500  0.91502700  0.67751800  1
  Cu  Cu101  1  0.02426500  0.08497300  0.82248200  1
  Cu  Cu102  1  0.47573500  0.08497300  0.32248200  1
  Cu  Cu103  1  0.97573500  0.91502700  0.17751800  1
  Cu  Cu104  1  0.43572000  0.65372400  0.67452500  1
  Cu  Cu105  1  0.93572000  0.34627600  0.82547500  1
  Cu  Cu106  1  0.56428000  0.34627600  0.32547500  1
  Cu  Cu107  1  0.06428000  0.65372400  0.17452500  1
  Cu  Cu108  1  0.09085000  0.52979700  0.66166200  1
  Cu  Cu109  1  0.59085000  0.47020300  0.83833800  1
  Cu  Cu110  1  0.90915000  0.47020300  0.33833800  1
  Cu  Cu111  1  0.40915000  0.52979700  0.16166200  1
  Cu  Cu112  1  0.01572400  0.76418600  0.49048600  1
  Cu  Cu113  1  0.51572400  0.23581400  0.00951400  1
  Cu  Cu114  1  0.98427600  0.23581400  0.50951400  1
  Cu  Cu115  1  0.48427600  0.76418600  0.99048600  1
