# generated using pymatgen
data_Cu8(NiC2)11
_symmetry_space_group_name_H-M   'P 1'
_cell_length_a   14.57980738
_cell_length_b   14.57980738
_cell_length_c   13.66970215
_cell_angle_alpha   66.45112444
_cell_angle_beta   113.54887556
_cell_angle_gamma   128.69119629
_symmetry_Int_Tables_number   1
_chemical_formula_structural   Cu8(NiC2)11
_chemical_formula_sum   'Cu32 Ni44 C88'
_cell_volume   2033.09438655
_cell_formula_units_Z   4
loop_
 _symmetry_equiv_pos_site_id
 _symmetry_equiv_pos_as_xyz
  1  'x, y, z'
loop_
 _atom_site_type_symbol
 _atom_site_label
 _atom_site_symmetry_multiplicity
 _atom_site_fract_x
 _atom_site_fract_y
 _atom_site_fract_z
 _atom_site_occupancy
  C  C0  1  0.06720102  0.06720102  0.25000000  1
  C  C1  1  0.93279898  0.93279898  0.75000000  1
  C  C2  1  0.30402198  0.72877009  0.53957388  1
  C  C3  1  0.72877009  0.30402198  0.96042612  1
  C  C4  1  0.69597802  0.27122991  0.46042612  1
  C  C5  1  0.27122991  0.69597802  0.03957388  1
  C  C6  1  0.05312985  0.33851752  0.82628895  1
  C  C7  1  0.33851752  0.05312985  0.67371105  1
  C  C8  1  0.94687015  0.66148248  0.17371105  1
  C  C9  1  0.66148248  0.94687015  0.32628895  1
  C  C10  1  0.25569781  0.32021588  0.23157765  1
  C  C11  1  0.32021588  0.25569781  0.26842235  1
  C  C12  1  0.74430219  0.67978412  0.76842235  1
  C  C13  1  0.67978412  0.74430219  0.73157765  1
  C  C14  1  0.46167497  0.64984372  0.64211778  1
  C  C15  1  0.64984372  0.46167497  0.85788222  1
  C  C16  1  0.53832503  0.35015628  0.35788222  1
  C  C17  1  0.35015628  0.53832503  0.14211778  1
  C  C18  1  0.37655468  0.58891651  0.72198585  1
  C  C19  1  0.58891651  0.37655468  0.77801415  1
  C  C20  1  0.62344532  0.41108349  0.27801415  1
  C  C21  1  0.41108349  0.62344532  0.22198585  1
  C  C22  1  0.62809803  0.54576633  0.96672860  1
  C  C23  1  0.54576633  0.62809803  0.53327140  1
  C  C24  1  0.37190197  0.45423367  0.03327140  1
  C  C25  1  0.45423367  0.37190197  0.46672860  1
  C  C26  1  0.51171350  0.49243108  0.87727839  1
  C  C27  1  0.49243108  0.51171350  0.62272161  1
  C  C28  1  0.48828650  0.50756892  0.12272161  1
  C  C29  1  0.50756892  0.48828650  0.37727839  1
  C  C30  1  0.53289759  0.17015735  0.11012559  1
  C  C31  1  0.17015735  0.53289759  0.38987441  1
  C  C32  1  0.46710241  0.82984265  0.88987441  1
  C  C33  1  0.82984265  0.46710241  0.61012559  1
  C  C34  1  0.47741019  0.25760929  0.00709130  1
  C  C35  1  0.25760929  0.47741019  0.49290870  1
  C  C36  1  0.52258981  0.74239071  0.99290870  1
  C  C37  1  0.74239071  0.52258981  0.50709130  1
  C  C38  1  0.49881573  0.24771479  0.14867399  1
  C  C39  1  0.24771479  0.49881573  0.35132601  1
  C  C40  1  0.50118427  0.75228521  0.85132601  1
  C  C41  1  0.75228521  0.50118427  0.64867399  1
  C  C42  1  0.37758010  0.00286721  0.02402080  1
  C  C43  1  0.00286721  0.37758010  0.47597920  1
  C  C44  1  0.62241990  0.99713279  0.97597920  1
  C  C45  1  0.99713279  0.62241990  0.52402080  1
  C  C46  1  0.22274635  0.93539802  0.01740063  1
  C  C47  1  0.93539802  0.22274635  0.48259937  1
  C  C48  1  0.77725365  0.06460198  0.98259937  1
  C  C49  1  0.06460198  0.77725365  0.51740063  1
  C  C50  1  0.30197405  0.07285532  0.92528699  1
  C  C51  1  0.07285532  0.30197405  0.57471301  1
  C  C52  1  0.69802595  0.92714468  0.07471301  1
  C  C53  1  0.92714468  0.69802595  0.42528699  1
  C  C54  1  0.29012325  0.18609422  0.10890883  1
  C  C55  1  0.18609422  0.29012325  0.39109117  1
  C  C56  1  0.70987675  0.81390578  0.89109117  1
  C  C57  1  0.81390578  0.70987675  0.60890883  1
  C  C58  1  0.25926745  0.17818322  0.97168791  1
  C  C59  1  0.17818322  0.25926745  0.52831209  1
  C  C60  1  0.74073255  0.82181678  0.02831209  1
  C  C61  1  0.82181678  0.74073255  0.47168791  1
  C  C62  1  0.17017719  0.04821764  0.06437056  1
  C  C63  1  0.04821764  0.17017719  0.43562944  1
  C  C64  1  0.82982281  0.95178236  0.93562944  1
  C  C65  1  0.95178236  0.82982281  0.56437056  1
  C  C66  1  0.39653012  0.97929871  0.22250493  1
  C  C67  1  0.97929871  0.39653012  0.27749507  1
  C  C68  1  0.60346988  0.02070129  0.77749507  1
  C  C69  1  0.02070129  0.60346988  0.72250493  1
  C  C70  1  0.36636934  0.06093871  0.26024431  1
  C  C71  1  0.06093871  0.36636934  0.23975569  1
  C  C72  1  0.63363066  0.93906129  0.73975569  1
  C  C73  1  0.93906129  0.63363066  0.76024431  1
  C  C74  1  0.24519604  0.93338831  0.20063817  1
  C  C75  1  0.93338831  0.24519604  0.29936183  1
  C  C76  1  0.75480396  0.06661169  0.79936183  1
  C  C77  1  0.06661169  0.75480396  0.70063817  1
  Ni  Ni78  1  0.04767709  0.22424479  0.99220999  1
  Ni  Ni79  1  0.22424479  0.04767709  0.50779001  1
  Ni  Ni80  1  0.95232291  0.77575521  0.00779001  1
  Ni  Ni81  1  0.77575521  0.95232291  0.49220999  1
  Ni  Ni82  1  0.11988172  0.48365769  0.68892410  1
  Ni  Ni83  1  0.48365769  0.11988172  0.81107590  1
  Ni  Ni84  1  0.88011828  0.51634231  0.31107590  1
  Ni  Ni85  1  0.51634231  0.88011828  0.18892410  1
  Ni  Ni86  1  0.82071762  0.99281086  0.29381630  1
  Ni  Ni87  1  0.99281086  0.82071762  0.20618370  1
  Ni  Ni88  1  0.17928238  0.00718914  0.70618370  1
  Ni  Ni89  1  0.00718914  0.17928238  0.79381630  1
  Ni  Ni90  1  0.90511610  0.29367259  0.68957940  1
  Ni  Ni91  1  0.29367259  0.90511610  0.81042060  1
  Ni  Ni92  1  0.09488390  0.70632741  0.31042060  1
  Ni  Ni93  1  0.70632741  0.09488390  0.18957940  1
  Ni  Ni94  1  0.92254619  0.33784709  0.86414883  1
  Ni  Ni95  1  0.33784709  0.92254619  0.63585117  1
  Ni  Ni96  1  0.07745381  0.66215291  0.13585117  1
  Ni  Ni97  1  0.66215291  0.07745381  0.36414883  1
  Ni  Ni98  1  0.15686975  0.49041666  0.90656519  1
  Ni  Ni99  1  0.49041666  0.15686975  0.59343481  1
  Ni  Ni100  1  0.84313025  0.50958334  0.09343481  1
  Ni  Ni101  1  0.50958334  0.84313025  0.40656519  1
  Ni  Ni102  1  0.23914090  0.38619592  0.85157342  1
  Ni  Ni103  1  0.38619592  0.23914090  0.64842658  1
  Ni  Ni104  1  0.76085910  0.61380408  0.14842658  1
  Ni  Ni105  1  0.61380408  0.76085910  0.35157342  1
  Ni  Ni106  1  0.47259900  0.19923375  0.08844874  1
  Ni  Ni107  1  0.19923375  0.47259900  0.41155126  1
  Ni  Ni108  1  0.52740100  0.80076625  0.91155126  1
  Ni  Ni109  1  0.80076625  0.52740100  0.58844874  1
  Ni  Ni110  1  0.30963718  0.02039062  0.00821319  1
  Ni  Ni111  1  0.02039062  0.30963718  0.49178681  1
  Ni  Ni112  1  0.69036282  0.97960938  0.99178681  1
  Ni  Ni113  1  0.97960938  0.69036282  0.50821319  1
  Ni  Ni114  1  0.26035605  0.12815561  0.05627255  1
  Ni  Ni115  1  0.12815561  0.26035605  0.44372745  1
  Ni  Ni116  1  0.73964395  0.87184439  0.94372745  1
  Ni  Ni117  1  0.87184439  0.73964395  0.55627255  1
  Ni  Ni118  1  0.33808643  0.01046205  0.20099538  1
  Ni  Ni119  1  0.01046205  0.33808643  0.29900462  1
  Ni  Ni120  1  0.66191357  0.98953795  0.79900462  1
  Ni  Ni121  1  0.98953795  0.66191357  0.70099538  1
  Cu  Cu122  1  0.04260478  0.16093571  0.07913900  1
  Cu  Cu123  1  0.16093571  0.04260478  0.42086100  1
  Cu  Cu124  1  0.95739522  0.83906429  0.92086100  1
  Cu  Cu125  1  0.83906429  0.95739522  0.57913900  1
  Cu  Cu126  1  0.16578235  0.56448342  0.61847986  1
  Cu  Cu127  1  0.56448342  0.16578235  0.88152014  1
  Cu  Cu128  1  0.83421765  0.43551658  0.38152014  1
  Cu  Cu129  1  0.43551658  0.83421765  0.11847986  1
  Cu  Cu130  1  0.91241553  0.02278257  0.28304386  1
  Cu  Cu131  1  0.02278257  0.91241553  0.21695614  1
  Cu  Cu132  1  0.08758447  0.97721743  0.71695614  1
  Cu  Cu133  1  0.97721743  0.08758447  0.78304386  1
  Cu  Cu134  1  0.82521127  0.27037408  0.61314184  1
  Cu  Cu135  1  0.27037408  0.82521127  0.88685816  1
  Cu  Cu136  1  0.17478873  0.72962592  0.38685816  1
  Cu  Cu137  1  0.72962592  0.17478873  0.11314184  1
  Cu  Cu138  1  0.85542500  0.33752905  0.89139432  1
  Cu  Cu139  1  0.33752905  0.85542500  0.60860568  1
  Cu  Cu140  1  0.14457500  0.66247095  0.10860568  1
  Cu  Cu141  1  0.66247095  0.14457500  0.39139432  1
  Cu  Cu142  1  0.20938409  0.56896290  0.95196186  1
  Cu  Cu143  1  0.56896290  0.20938409  0.54803814  1
  Cu  Cu144  1  0.79061591  0.43103710  0.04803814  1
  Cu  Cu145  1  0.43103710  0.79061591  0.45196186  1
  Cu  Cu146  1  0.34088274  0.42304801  0.86485288  1
  Cu  Cu147  1  0.42304801  0.34088274  0.63514712  1
  Cu  Cu148  1  0.65911726  0.57695199  0.13514712  1
  Cu  Cu149  1  0.57695199  0.65911726  0.36485288  1
  Cu  Cu150  1  0.34564988  0.09018534  0.08856721  1
  Cu  Cu151  1  0.09018534  0.34564988  0.41143279  1
  Cu  Cu152  1  0.65435012  0.90981466  0.91143279  1
  Cu  Cu153  1  0.90981466  0.65435012  0.58856721  1
  C  C154  1  0.24103174  0.24103174  0.25000000  1
  C  C155  1  0.75896826  0.75896826  0.75000000  1
  C  C156  1  0.42474110  0.66599786  0.67531885  1
  C  C157  1  0.66599786  0.42474110  0.82468115  1
  C  C158  1  0.57525890  0.33400214  0.32468115  1
  C  C159  1  0.33400214  0.57525890  0.17531885  1
  C  C160  1  0.59918745  0.52913201  0.89381209  1
  C  C161  1  0.52913201  0.59918745  0.60618791  1
  C  C162  1  0.40081255  0.47086799  0.10618791  1
  C  C163  1  0.47086799  0.40081255  0.39381209  1
