# generated using pymatgen
data_Cu2Ni2C19
_symmetry_space_group_name_H-M   'P 1'
_cell_length_a   6.48676000
_cell_length_b   8.91187800
_cell_length_c   10.26454828
_cell_angle_alpha   88.39276306
_cell_angle_beta   90.00000000
_cell_angle_gamma   90.00000000
_symmetry_Int_Tables_number   1
_chemical_formula_structural   Cu2Ni2C19
_chemical_formula_sum   'Cu4 Ni4 C38'
_cell_volume   593.15201562
_cell_formula_units_Z   2
loop_
 _symmetry_equiv_pos_site_id
 _symmetry_equiv_pos_as_xyz
  1  'x, y, z'
loop_
 _atom_site_type_symbol
 _atom_site_label
 _atom_site_symmetry_multiplicity
 _atom_site_fract_x
 _atom_site_fract_y
 _atom_site_fract_z
 _atom_site_occupancy
  C  C0  1  0.28394300  0.74650700  0.87703200  1
  C  C1  1  0.71605700  0.74650700  0.37703200  1
  C  C2  1  0.76362200  0.25049300  0.62009600  1
  C  C3  1  0.23598500  0.24865900  0.62204800  1
  C  C4  1  0.76401500  0.24865900  0.12204800  1
  C  C5  1  0.23637800  0.25049300  0.12009600  1
  C  C6  1  0.00048200  0.65600600  0.60769600  1
  C  C7  1  0.99951800  0.65600600  0.10769600  1
  C  C8  1  0.50190400  0.34872500  0.89097600  1
  C  C9  1  0.49809600  0.34872500  0.39097600  1
  Ni  Ni10  1  0.49864700  0.57647300  0.64183000  1
  Ni  Ni11  1  0.50135300  0.57647300  0.14183000  1
  Ni  Ni12  1  0.00136800  0.42818400  0.85898200  1
  Ni  Ni13  1  0.99863200  0.42818400  0.35898200  1
  Cu  Cu14  1  0.99655500  0.92564900  0.64435600  1
  Cu  Cu15  1  0.00344500  0.92564900  0.14435600  1
  Cu  Cu16  1  0.50228000  0.07763100  0.85836600  1
  Cu  Cu17  1  0.49772000  0.07763100  0.35836600  1
  C  C18  1  0.50096900  0.93999000  0.83952500  1
  C  C19  1  0.49903100  0.93999000  0.33952500  1
  C  C20  1  0.98987600  0.86801600  0.52973300  1
  C  C21  1  0.01012400  0.86801600  0.02973300  1
  C  C22  1  0.00295600  0.82395700  0.73790800  1
  C  C23  1  0.99704400  0.82395700  0.23790800  1
  C  C24  1  0.31091400  0.67746800  0.61099700  1
  C  C25  1  0.68624300  0.67282200  0.60113700  1
  C  C26  1  0.31375700  0.67282200  0.10113700  1
  C  C27  1  0.68908600  0.67746800  0.11099700  1
  C  C28  1  0.00856100  0.57702200  0.93023500  1
  C  C29  1  0.99143900  0.57702200  0.43023500  1
  C  C30  1  0.49676100  0.53650400  0.79062600  1
  C  C31  1  0.50323900  0.53650400  0.29062600  1
  C  C32  1  0.00071300  0.46027000  0.70802600  1
  C  C33  1  0.99928700  0.46027000  0.20802600  1
  C  C34  1  0.49595800  0.42528000  0.57030100  1
  C  C35  1  0.50404200  0.42528000  0.07030100  1
  C  C36  1  0.81354200  0.32893300  0.89695900  1
  C  C37  1  0.18813000  0.32568800  0.89475800  1
  C  C38  1  0.81187000  0.32568800  0.39475800  1
  C  C39  1  0.18645800  0.32893300  0.39695900  1
  C  C40  1  0.50318400  0.17872500  0.76274900  1
  C  C41  1  0.49681600  0.17872500  0.26274900  1
  C  C42  1  0.50206500  0.13678300  0.97314800  1
  C  C43  1  0.49793500  0.13678300  0.47314800  1
  C  C44  1  0.99806200  0.06492900  0.66302300  1
  C  C45  1  0.00193800  0.06492900  0.16302300  1
