# generated using pymatgen
data_Cu3Ni2C31
_symmetry_space_group_name_H-M   'P 1'
_cell_length_a   8.59442848
_cell_length_b   8.59442848
_cell_length_c   8.59442878
_cell_angle_alpha   60.21837130
_cell_angle_beta   60.21837130
_cell_angle_gamma   60.21836878
_symmetry_Int_Tables_number   1
_chemical_formula_structural   Cu3Ni2C31
_chemical_formula_sum   'Cu3 Ni2 C31'
_cell_volume   451.10531779
_cell_formula_units_Z   1
loop_
 _symmetry_equiv_pos_site_id
 _symmetry_equiv_pos_as_xyz
  1  'x, y, z'
loop_
 _atom_site_type_symbol
 _atom_site_label
 _atom_site_symmetry_multiplicity
 _atom_site_fract_x
 _atom_site_fract_y
 _atom_site_fract_z
 _atom_site_occupancy
  Ni  Ni0  1  0.99632000  0.99632000  0.99632000  1
  Ni  Ni1  1  0.49931400  0.49931400  0.49931400  1
  Cu  Cu2  1  0.35520400  0.35520400  0.35520400  1
  Cu  Cu3  1  0.14286700  0.14286700  0.14286700  1
  Cu  Cu4  1  0.64547200  0.64547200  0.64547200  1
  C  C5  1  0.85669900  0.85669900  0.85669900  1
  C  C6  1  0.45924200  0.75184500  0.04300700  1
  C  C7  1  0.75184500  0.04300700  0.45924200  1
  C  C8  1  0.04300700  0.45924200  0.75184500  1
  C  C9  1  0.95845000  0.54076300  0.25137500  1
  C  C10  1  0.25137500  0.95845000  0.54076300  1
  C  C11  1  0.54076300  0.25137500  0.95845000  1
  C  C12  1  0.69450400  0.87845700  0.49547900  1
  C  C13  1  0.87845700  0.49547900  0.69450400  1
  C  C14  1  0.49547900  0.69450400  0.87845700  1
  C  C15  1  0.26099900  0.91489800  0.05932800  1
  C  C16  1  0.61398800  0.80422600  0.01652400  1
  C  C17  1  0.43126700  0.58477300  0.23753200  1
  C  C18  1  0.91489800  0.05932800  0.26099900  1
  C  C19  1  0.58477300  0.23753200  0.43126700  1
  C  C20  1  0.99668700  0.37755100  0.19323600  1
  C  C21  1  0.23753200  0.43126700  0.58477300  1
  C  C22  1  0.94788800  0.73186700  0.09242100  1
  C  C23  1  0.19323600  0.99668700  0.37755100  1
  C  C24  1  0.80422600  0.01652400  0.61398800  1
  C  C25  1  0.05932800  0.26099900  0.91489800  1
  C  C26  1  0.76527700  0.55270400  0.41969900  1
  C  C27  1  0.01652400  0.61398800  0.80422600  1
  C  C28  1  0.41969900  0.76527700  0.55270400  1
  C  C29  1  0.09242100  0.94788800  0.73186700  1
  C  C30  1  0.55270400  0.41969900  0.76527700  1
  C  C31  1  0.37755100  0.19323600  0.99668700  1
  C  C32  1  0.73186700  0.09242100  0.94788800  1
  C  C33  1  0.49276500  0.32028400  0.11711300  1
  C  C34  1  0.11711300  0.49276500  0.32028400  1
  C  C35  1  0.32028400  0.11711300  0.49276500  1
