# generated using pymatgen
data_Cu12Ni6C17
_symmetry_space_group_name_H-M   'P 1'
_cell_length_a   10.11817300
_cell_length_b   6.72787400
_cell_length_c   13.12904412
_cell_angle_alpha   65.84228613
_cell_angle_beta   90.00000000
_cell_angle_gamma   90.00000000
_symmetry_Int_Tables_number   1
_chemical_formula_structural   Cu12Ni6C17
_chemical_formula_sum   'Cu24 Ni12 C34'
_cell_volume   815.47189626
_cell_formula_units_Z   2
loop_
 _symmetry_equiv_pos_site_id
 _symmetry_equiv_pos_as_xyz
  1  'x, y, z'
loop_
 _atom_site_type_symbol
 _atom_site_label
 _atom_site_symmetry_multiplicity
 _atom_site_fract_x
 _atom_site_fract_y
 _atom_site_fract_z
 _atom_site_occupancy
  C  C0  1  0.28380600  0.60525000  0.91614400  1
  C  C1  1  0.78380600  0.39475000  0.58385600  1
  C  C2  1  0.71619400  0.39475000  0.08385600  1
  C  C3  1  0.21619400  0.60525000  0.41614400  1
  C  C4  1  0.01522400  0.81347700  0.64869000  1
  C  C5  1  0.51522400  0.18652300  0.85131000  1
  C  C6  1  0.98477600  0.18652300  0.35131000  1
  C  C7  1  0.48477600  0.81347700  0.14869000  1
  C  C8  1  0.50000000  0.00000000  0.50000000  1
  C  C9  1  0.00000000  0.00000000  0.00000000  1
  C  C10  1  0.43144500  0.58880500  0.61019800  1
  C  C11  1  0.93144500  0.41119500  0.88980200  1
  C  C12  1  0.56855500  0.41119500  0.38980200  1
  C  C13  1  0.06855500  0.58880500  0.11019800  1
  C  C14  1  0.31419800  0.73901100  0.61761900  1
  C  C15  1  0.81419800  0.26098900  0.88238100  1
  C  C16  1  0.68580200  0.26098900  0.38238100  1
  C  C17  1  0.18580200  0.73901100  0.11761900  1
  C  C18  1  0.06844700  0.13332700  0.77807300  1
  C  C19  1  0.56844700  0.86667300  0.72192700  1
  C  C20  1  0.93155300  0.86667300  0.22192700  1
  C  C21  1  0.43155300  0.13332700  0.27807300  1
  C  C22  1  0.19227300  0.19891200  0.83360100  1
  C  C23  1  0.69227300  0.80108800  0.66639900  1
  C  C24  1  0.80772700  0.80108800  0.16639900  1
  C  C25  1  0.30772700  0.19891200  0.33360100  1
  C  C26  1  0.30396900  0.07967800  0.60998200  1
  C  C27  1  0.80396900  0.92032200  0.89001800  1
  C  C28  1  0.69603100  0.92032200  0.39001800  1
  C  C29  1  0.19603100  0.07967800  0.10998200  1
  C  C30  1  0.42637500  0.22641200  0.61275800  1
  C  C31  1  0.92637500  0.77358800  0.88724200  1
  C  C32  1  0.57362500  0.77358800  0.38724200  1
  C  C33  1  0.07362500  0.22641200  0.11275800  1
  Ni  Ni34  1  0.37965700  0.72086600  0.56557500  1
  Ni  Ni35  1  0.87965700  0.27913400  0.93442500  1
  Ni  Ni36  1  0.62034300  0.27913400  0.43442500  1
  Ni  Ni37  1  0.12034300  0.72086600  0.06557500  1
  Ni  Ni38  1  0.11301500  0.10379700  0.84920300  1
  Ni  Ni39  1  0.61301500  0.89620300  0.65079700  1
  Ni  Ni40  1  0.88698500  0.89620300  0.15079700  1
  Ni  Ni41  1  0.38698500  0.10379700  0.34920300  1
  Ni  Ni42  1  0.37329700  0.17883100  0.56336200  1
  Ni  Ni43  1  0.87329700  0.82116900  0.93663800  1
  Ni  Ni44  1  0.62670300  0.82116900  0.43663800  1
  Ni  Ni45  1  0.12670300  0.17883100  0.06336200  1
  Cu  Cu46  1  0.46632900  0.92230600  0.81911600  1
  Cu  Cu47  1  0.96632900  0.07769400  0.68088400  1
  Cu  Cu48  1  0.53367100  0.07769400  0.18088400  1
  Cu  Cu49  1  0.03367100  0.92230600  0.31911600  1
  Cu  Cu50  1  0.02561600  0.63924400  0.82498700  1
  Cu  Cu51  1  0.52561600  0.36075600  0.67501300  1
  Cu  Cu52  1  0.97438400  0.36075600  0.17501300  1
  Cu  Cu53  1  0.47438400  0.63924400  0.32498700  1
  Cu  Cu54  1  0.06897500  0.57485200  0.60171700  1
  Cu  Cu55  1  0.56897500  0.42514800  0.89828300  1
  Cu  Cu56  1  0.93102500  0.42514800  0.39828300  1
  Cu  Cu57  1  0.43102500  0.57485200  0.10171700  1
  Cu  Cu58  1  0.11328800  0.04347400  0.49620500  1
  Cu  Cu59  1  0.61328800  0.95652600  0.00379500  1
  Cu  Cu60  1  0.88671200  0.95652600  0.50379500  1
  Cu  Cu61  1  0.38671200  0.04347400  0.99620500  1
  Cu  Cu62  1  0.33471500  0.34133400  0.80590200  1
  Cu  Cu63  1  0.83471500  0.65866600  0.69409800  1
  Cu  Cu64  1  0.66528500  0.65866600  0.19409800  1
  Cu  Cu65  1  0.16528500  0.34133400  0.30590200  1
  Cu  Cu66  1  0.21430600  0.84065300  0.68753600  1
  Cu  Cu67  1  0.71430600  0.15934700  0.81246400  1
  Cu  Cu68  1  0.78569400  0.15934700  0.31246400  1
  Cu  Cu69  1  0.28569400  0.84065300  0.18753600  1
