# generated using pymatgen
data_Cu4NiC5
_symmetry_space_group_name_H-M   'P 1'
_cell_length_a   16.50530500
_cell_length_b   16.50530500
_cell_length_c   5.93388600
_cell_angle_alpha   90.00000000
_cell_angle_beta   90.00000000
_cell_angle_gamma   90.00000000
_symmetry_Int_Tables_number   1
_chemical_formula_structural   Cu4NiC5
_chemical_formula_sum   'Cu32 Ni8 C40'
_cell_volume   1616.53944625
_cell_formula_units_Z   8
loop_
 _symmetry_equiv_pos_site_id
 _symmetry_equiv_pos_as_xyz
  1  'x, y, z'
loop_
 _atom_site_type_symbol
 _atom_site_label
 _atom_site_symmetry_multiplicity
 _atom_site_fract_x
 _atom_site_fract_y
 _atom_site_fract_z
 _atom_site_occupancy
  C  C0  1  0.98869300  0.01130700  0.25000000  1
  C  C1  1  0.01130700  0.98869300  0.75000000  1
  C  C2  1  0.98869300  0.48869300  0.25000000  1
  C  C3  1  0.01130700  0.51130700  0.75000000  1
  C  C4  1  0.11157100  0.36319400  0.81269900  1
  C  C5  1  0.11157100  0.13680600  0.81269900  1
  C  C6  1  0.12192600  0.62192600  0.25000000  1
  C  C7  1  0.12192600  0.87807400  0.25000000  1
  C  C8  1  0.13680600  0.11157100  0.31269900  1
  C  C9  1  0.13680600  0.38842900  0.31269900  1
  C  C10  1  0.25000000  0.25000000  0.33976200  1
  C  C11  1  0.25000000  0.75000000  0.75000000  1
  C  C12  1  0.25000000  0.75000000  0.25000000  1
  C  C13  1  0.25000000  0.25000000  0.83976200  1
  C  C14  1  0.36319400  0.11157100  0.31269900  1
  C  C15  1  0.36319400  0.38842900  0.31269900  1
  C  C16  1  0.37807400  0.62192600  0.25000000  1
  C  C17  1  0.37807400  0.87807400  0.25000000  1
  C  C18  1  0.38842900  0.13680600  0.81269900  1
  C  C19  1  0.38842900  0.36319400  0.81269900  1
  C  C20  1  0.51130700  0.48869300  0.25000000  1
  C  C21  1  0.48869300  0.51130700  0.75000000  1
  C  C22  1  0.51130700  0.01130700  0.25000000  1
  C  C23  1  0.48869300  0.98869300  0.75000000  1
  C  C24  1  0.61157100  0.63680600  0.18730100  1
  C  C25  1  0.61157100  0.86319400  0.18730100  1
  C  C26  1  0.62192600  0.12192600  0.75000000  1
  C  C27  1  0.62192600  0.37807400  0.75000000  1
  C  C28  1  0.63680600  0.61157100  0.68730100  1
  C  C29  1  0.63680600  0.88842900  0.68730100  1
  C  C30  1  0.75000000  0.25000000  0.75000000  1
  C  C31  1  0.75000000  0.25000000  0.25000000  1
  C  C32  1  0.75000000  0.75000000  0.16023800  1
  C  C33  1  0.75000000  0.75000000  0.66023800  1
  C  C34  1  0.86319400  0.61157100  0.68730100  1
  C  C35  1  0.86319400  0.88842900  0.68730100  1
  C  C36  1  0.87807400  0.12192600  0.75000000  1
  C  C37  1  0.87807400  0.37807400  0.75000000  1
  C  C38  1  0.88842900  0.63680600  0.18730100  1
  C  C39  1  0.88842900  0.86319400  0.18730100  1
  Ni  Ni40  1  0.01818000  0.75000000  0.71435000  1
  Ni  Ni41  1  0.25000000  0.51818000  0.78565000  1
  Ni  Ni42  1  0.25000000  0.98182000  0.78565000  1
  Ni  Ni43  1  0.48182000  0.75000000  0.71435000  1
  Ni  Ni44  1  0.51818000  0.25000000  0.28565000  1
  Ni  Ni45  1  0.75000000  0.01818000  0.21435000  1
  Ni  Ni46  1  0.75000000  0.48182000  0.21435000  1
  Ni  Ni47  1  0.98182000  0.25000000  0.28565000  1
  Cu  Cu48  1  0.00872000  0.11626200  0.52692000  1
  Cu  Cu49  1  0.00872000  0.38373800  0.52692000  1
  Cu  Cu50  1  0.11626200  0.00872000  0.02692000  1
  Cu  Cu51  1  0.11626200  0.49128000  0.02692000  1
  Cu  Cu52  1  0.13042800  0.25000000  0.09189000  1
  Cu  Cu53  1  0.12982100  0.75000000  0.02147800  1
  Cu  Cu54  1  0.25000000  0.13042800  0.59189000  1
  Cu  Cu55  1  0.25000000  0.62982100  0.47852200  1
  Cu  Cu56  1  0.25000000  0.36957200  0.59189000  1
  Cu  Cu57  1  0.25000000  0.87017900  0.47852200  1
  Cu  Cu58  1  0.37017900  0.75000000  0.02147800  1
  Cu  Cu59  1  0.36957200  0.25000000  0.09189000  1
  Cu  Cu60  1  0.38373800  0.49128000  0.02692000  1
  Cu  Cu61  1  0.38373800  0.00872000  0.02692000  1
  Cu  Cu62  1  0.49128000  0.11626200  0.52692000  1
  Cu  Cu63  1  0.49128000  0.38373800  0.52692000  1
  Cu  Cu64  1  0.50872000  0.61626200  0.47308000  1
  Cu  Cu65  1  0.50872000  0.88373800  0.47308000  1
  Cu  Cu66  1  0.61626200  0.50872000  0.97308000  1
  Cu  Cu67  1  0.61626200  0.99128000  0.97308000  1
  Cu  Cu68  1  0.63042800  0.75000000  0.90811000  1
  Cu  Cu69  1  0.62982100  0.25000000  0.97852200  1
  Cu  Cu70  1  0.75000000  0.12982100  0.52147800  1
  Cu  Cu71  1  0.75000000  0.37017900  0.52147800  1
  Cu  Cu72  1  0.75000000  0.63042800  0.40811000  1
  Cu  Cu73  1  0.75000000  0.86957200  0.40811000  1
  Cu  Cu74  1  0.87017900  0.25000000  0.97852200  1
  Cu  Cu75  1  0.86957200  0.75000000  0.90811000  1
  Cu  Cu76  1  0.88373800  0.50872000  0.97308000  1
  Cu  Cu77  1  0.88373800  0.99128000  0.97308000  1
  Cu  Cu78  1  0.99128000  0.61626200  0.47308000  1
  Cu  Cu79  1  0.99128000  0.88373800  0.47308000  1
