# generated using pymatgen
data_CuNiC18
_symmetry_space_group_name_H-M   'P 1'
_cell_length_a   9.83178100
_cell_length_b   9.87281945
_cell_length_c   9.92081065
_cell_angle_alpha   85.77918819
_cell_angle_beta   87.70494137
_cell_angle_gamma   87.57706077
_symmetry_Int_Tables_number   1
_chemical_formula_structural   CuNiC18
_chemical_formula_sum   'Cu4 Ni4 C72'
_cell_volume   958.85746566
_cell_formula_units_Z   4
loop_
 _symmetry_equiv_pos_site_id
 _symmetry_equiv_pos_as_xyz
  1  'x, y, z'
loop_
 _atom_site_type_symbol
 _atom_site_label
 _atom_site_symmetry_multiplicity
 _atom_site_fract_x
 _atom_site_fract_y
 _atom_site_fract_z
 _atom_site_occupancy
  C  C0  1  0.04875900  0.98334300  0.99697600  1
  C  C1  1  0.73158100  0.14710700  0.05848000  1
  C  C2  1  0.07765300  0.73765000  0.13086800  1
  C  C3  1  0.56485200  0.63982300  0.22979400  1
  C  C4  1  0.85522800  0.94292700  0.26712800  1
  C  C5  1  0.76745500  0.41496900  0.36674800  1
  C  C6  1  0.36654100  0.75802800  0.43623500  1
  C  C7  1  0.52030500  0.44736500  0.49878200  1
  C  C8  1  0.23557000  0.55619600  0.64563500  1
  C  C9  1  0.46050300  0.34332500  0.77709000  1
  C  C10  1  0.14475000  0.04726300  0.73678500  1
  C  C11  1  0.93910800  0.26198100  0.85055900  1
  Ni  Ni12  1  0.02477100  0.24310600  0.47212100  1
  Ni  Ni13  1  0.52706600  0.97471800  0.76373400  1
  Ni  Ni14  1  0.74488500  0.75378600  0.74514500  1
  Ni  Ni15  1  0.75078800  0.53385300  0.96898800  1
  Cu  Cu16  1  0.25250200  0.47461300  0.03760200  1
  Cu  Cu17  1  0.24783400  0.25170500  0.25550600  1
  Cu  Cu18  1  0.46483400  0.03683600  0.25511800  1
  Cu  Cu19  1  0.96295900  0.74434400  0.53347300  1
  C  C20  1  0.66232600  0.86412700  0.05363800  1
  C  C21  1  0.94982000  0.33365800  0.13954700  1
  C  C22  1  0.55037800  0.35462200  0.17448000  1
  C  C23  1  0.14414200  0.95248600  0.32767200  1
  C  C24  1  0.16649500  0.54623500  0.35649700  1
  C  C25  1  0.64865300  0.82412600  0.44656700  1
  C  C26  1  0.35403400  0.17340900  0.55335400  1
  C  C27  1  0.82433000  0.44630300  0.64160900  1
  C  C28  1  0.84915100  0.04579700  0.67224900  1
  C  C29  1  0.45148000  0.64886800  0.82881800  1
  C  C30  1  0.04598100  0.67889400  0.85167700  1
  C  C31  1  0.32151200  0.16184100  0.95550600  1
  C  C32  1  0.61698500  0.40194800  0.03487400  1
  C  C33  1  0.90624800  0.22749300  0.04709900  1
  C  C34  1  0.32647100  0.12812100  0.11585800  1
  C  C35  1  0.11190300  0.33794600  0.12296600  1
  C  C36  1  0.68771500  0.71078200  0.09052100  1
  C  C37  1  0.88831800  0.47772400  0.09484500  1
  C  C38  1  0.77721700  0.95266600  0.09379800  1
  C  C39  1  0.52531900  0.91081300  0.11962500  1
  C  C40  1  0.39014600  0.38106900  0.17390000  1
  C  C41  1  0.58686700  0.20019300  0.19411200  1
  C  C42  1  0.19214300  0.58461900  0.20152900  1
  C  C43  1  0.06426700  0.91323800  0.20667300  1
  C  C44  1  0.11822800  0.11258300  0.33300400  1
  C  C45  1  0.59706200  0.43970400  0.28604100  1
  C  C46  1  0.90922100  0.30335700  0.28948800  1
  C  C47  1  0.29962800  0.91606000  0.31973700  1
  C  C48  1  0.16146600  0.38430500  0.38098500  1
  C  C49  1  0.38084300  0.17143600  0.39214800  1
  C  C50  1  0.02824300  0.61062100  0.39663700  1
  C  C51  1  0.60703100  0.96471100  0.37909000  1
  C  C52  1  0.55957500  0.71445700  0.39915200  1
  C  C53  1  0.28061500  0.58829100  0.44409800  1
  C  C54  1  0.80386900  0.80181900  0.40956000  1
  C  C55  1  0.08599700  0.88530100  0.46044500  1
  C  C56  1  0.89362500  0.10925900  0.52909200  1
  C  C57  1  0.19906700  0.17183300  0.58551700  1
  C  C58  1  0.41965000  0.29924500  0.59663100  1
  C  C59  1  0.70935700  0.41238000  0.55314600  1
  C  C60  1  0.41397500  0.03657200  0.61793400  1
  C  C61  1  0.96327200  0.37521500  0.59593200  1
  C  C62  1  0.62513200  0.82521400  0.60485200  1
  C  C63  1  0.84062800  0.60551500  0.62020800  1
  C  C64  1  0.08555100  0.69397200  0.69631500  1
  C  C65  1  0.69893400  0.07989300  0.70168500  1
  C  C66  1  0.40908000  0.55487600  0.72261900  1
  C  C67  1  0.87273700  0.88323900  0.66623100  1
  C  C68  1  0.94646800  0.08616800  0.77826900  1
  C  C69  1  0.41668100  0.80065700  0.79668800  1
  C  C70  1  0.80515800  0.40654100  0.79402700  1
  C  C71  1  0.61580500  0.62538700  0.83717100  1
  C  C72  1  0.45964100  0.12319700  0.88602500  1
  C  C73  1  0.20065600  0.08887200  0.90852600  1
  C  C74  1  0.11444500  0.54313700  0.90304700  1
  C  C75  1  0.30700900  0.31969600  0.92284900  1
  C  C76  1  0.88281900  0.66664500  0.87108900  1
  C  C77  1  0.08202600  0.79618600  0.93372400  1
  C  C78  1  0.65240300  0.88637800  0.89379900  1
  C  C79  1  0.39099800  0.60062600  0.97006200  1
