# generated using pymatgen
data_Cu4NiC4
_symmetry_space_group_name_H-M   'P 1'
_cell_length_a   6.89020178
_cell_length_b   6.89020178
_cell_length_c   8.00181700
_cell_angle_alpha   90.00000000
_cell_angle_beta   90.00000000
_cell_angle_gamma   97.97963869
_symmetry_Int_Tables_number   1
_chemical_formula_structural   Cu4NiC4
_chemical_formula_sum   'Cu8 Ni2 C8'
_cell_volume   376.20705295
_cell_formula_units_Z   2
loop_
 _symmetry_equiv_pos_site_id
 _symmetry_equiv_pos_as_xyz
  1  'x, y, z'
loop_
 _atom_site_type_symbol
 _atom_site_label
 _atom_site_symmetry_multiplicity
 _atom_site_fract_x
 _atom_site_fract_y
 _atom_site_fract_z
 _atom_site_occupancy
  C  C0  1  0.84256000  0.15744000  0.50000000  1
  C  C1  1  0.84256000  0.15744000  0.00000000  1
  C  C2  1  0.41760800  0.11520400  0.75000000  1
  C  C3  1  0.88479600  0.58239200  0.25000000  1
  C  C4  1  0.58239200  0.88479600  0.25000000  1
  C  C5  1  0.11520400  0.41760800  0.75000000  1
  C  C6  1  0.15744000  0.84256000  0.00000000  1
  C  C7  1  0.15744000  0.84256000  0.50000000  1
  Ni  Ni8  1  0.64640900  0.64640900  0.75000000  1
  Ni  Ni9  1  0.35359100  0.35359100  0.25000000  1
  Cu  Cu10  1  0.69224100  0.24966800  0.25000000  1
  Cu  Cu11  1  0.75033200  0.30775900  0.75000000  1
  Cu  Cu12  1  0.79640900  0.79640900  0.00915000  1
  Cu  Cu13  1  0.20359100  0.20359100  0.50915000  1
  Cu  Cu14  1  0.79640900  0.79640900  0.49085000  1
  Cu  Cu15  1  0.20359100  0.20359100  0.99085000  1
  Cu  Cu16  1  0.30775900  0.75033200  0.75000000  1
  Cu  Cu17  1  0.24966800  0.69224100  0.25000000  1
