# generated using pymatgen
data_Cu9(Ni3C10)2
_symmetry_space_group_name_H-M   'P 1'
_cell_length_a   25.12227113
_cell_length_b   25.12227113
_cell_length_c   25.12227016
_cell_angle_alpha   13.90632343
_cell_angle_beta   13.90632343
_cell_angle_gamma   13.90632465
_symmetry_Int_Tables_number   1
_chemical_formula_structural   Cu9(Ni3C10)2
_chemical_formula_sum   'Cu18 Ni12 C40'
_cell_volume   797.01892298
_cell_formula_units_Z   2
loop_
 _symmetry_equiv_pos_site_id
 _symmetry_equiv_pos_as_xyz
  1  'x, y, z'
loop_
 _atom_site_type_symbol
 _atom_site_label
 _atom_site_symmetry_multiplicity
 _atom_site_fract_x
 _atom_site_fract_y
 _atom_site_fract_z
 _atom_site_occupancy
  Ni  Ni0  1  0.22491400  0.22491400  0.22491400  1
  Ni  Ni1  1  0.90000000  0.90000000  0.90000000  1
  Ni  Ni2  1  0.17502200  0.17502200  0.17502200  1
  Ni  Ni3  1  0.82497800  0.82497800  0.82497800  1
  Ni  Ni4  1  0.77508600  0.77508600  0.77508600  1
  Ni  Ni5  1  0.42491400  0.42491400  0.42491400  1
  Ni  Ni6  1  0.10000000  0.10000000  0.10000000  1
  Ni  Ni7  1  0.37500600  0.37500600  0.37500600  1
  Ni  Ni8  1  0.02500200  0.02500200  0.02500200  1
  Ni  Ni9  1  0.97499800  0.97499800  0.97499800  1
  Ni  Ni10  1  0.62499400  0.62499400  0.62499400  1
  Ni  Ni11  1  0.57508600  0.57508600  0.57508600  1
  Cu  Cu12  1  0.20030000  0.69972500  0.69972500  1
  Cu  Cu13  1  0.69972500  0.69972500  0.20030000  1
  Cu  Cu14  1  0.69972500  0.20030000  0.69972500  1
  Cu  Cu15  1  0.79970000  0.30027500  0.30027500  1
  Cu  Cu16  1  0.50000000  0.50000000  0.50000000  1
  Cu  Cu17  1  0.30027500  0.79970000  0.30027500  1
  Cu  Cu18  1  0.30027500  0.30027500  0.79970000  1
  Cu  Cu19  1  0.40033000  0.89970900  0.89970900  1
  Cu  Cu20  1  0.69997300  0.69997300  0.69997300  1
  Cu  Cu21  1  0.89970900  0.40033000  0.89970900  1
  Cu  Cu22  1  0.50000000  0.00000000  0.50000000  1
  Cu  Cu23  1  0.50000000  0.50000000  0.00000000  1
  Cu  Cu24  1  0.89970900  0.89970900  0.40033000  1
  Cu  Cu25  1  0.00000000  0.50000000  0.50000000  1
  Cu  Cu26  1  0.30002700  0.30002700  0.30002700  1
  Cu  Cu27  1  0.10029100  0.10029100  0.59967000  1
  Cu  Cu28  1  0.10029100  0.59967000  0.10029100  1
  Cu  Cu29  1  0.59967000  0.10029100  0.10029100  1
  C  C30  1  0.03294200  0.58026800  0.03294200  1
  C  C31  1  0.03294200  0.03294200  0.58026800  1
  C  C32  1  0.58026800  0.03294200  0.03294200  1
  C  C33  1  0.85268900  0.85268900  0.85268900  1
  C  C34  1  0.54731900  0.54731900  0.54731900  1
  C  C35  1  0.81432600  0.36914500  0.36914500  1
  C  C36  1  0.96705800  0.41973200  0.96705800  1
  C  C37  1  0.36914500  0.36914500  0.81432600  1
  C  C38  1  0.36914500  0.81432600  0.36914500  1
  C  C39  1  0.96705800  0.96705800  0.41973200  1
  C  C40  1  0.63085500  0.18567400  0.63085500  1
  C  C41  1  0.63085500  0.63085500  0.18567400  1
  C  C42  1  0.18567400  0.63085500  0.63085500  1
  C  C43  1  0.45268100  0.45268100  0.45268100  1
  C  C44  1  0.78026900  0.23294100  0.23294100  1
  C  C45  1  0.74732000  0.74732000  0.74732000  1
  C  C46  1  0.14731100  0.14731100  0.14731100  1
  C  C47  1  0.41973200  0.96705800  0.96705800  1
  C  C48  1  0.56917100  0.01425300  0.56917100  1
  C  C49  1  0.56917100  0.56917100  0.01425300  1
  C  C50  1  0.23294100  0.23294100  0.78026900  1
  C  C51  1  0.23294100  0.78026900  0.23294100  1
  C  C52  1  0.05269600  0.05269600  0.05269600  1
  C  C53  1  0.65271400  0.65271400  0.65271400  1
  C  C54  1  0.38529500  0.83097900  0.83097900  1
  C  C55  1  0.34728600  0.34728600  0.34728600  1
  C  C56  1  0.61470500  0.16902100  0.16902100  1
  C  C57  1  0.01425300  0.56917100  0.56917100  1
  C  C58  1  0.16902100  0.61470500  0.16902100  1
  C  C59  1  0.16902100  0.16902100  0.61470500  1
  C  C60  1  0.83097900  0.83097900  0.38529500  1
  C  C61  1  0.43082900  0.43082900  0.98574700  1
  C  C62  1  0.83097900  0.38529500  0.83097900  1
  C  C63  1  0.43082900  0.98574700  0.43082900  1
  C  C64  1  0.25268000  0.25268000  0.25268000  1
  C  C65  1  0.98574700  0.43082900  0.43082900  1
  C  C66  1  0.94730400  0.94730400  0.94730400  1
  C  C67  1  0.21973100  0.76705900  0.76705900  1
  C  C68  1  0.76705900  0.21973100  0.76705900  1
  C  C69  1  0.76705900  0.76705900  0.21973100  1
