# generated using pymatgen
data_Cu3Ni2C11
_symmetry_space_group_name_H-M   'P 1'
_cell_length_a   6.15880100
_cell_length_b   9.63144400
_cell_length_c   12.40588700
_cell_angle_alpha   90.00000000
_cell_angle_beta   90.00000000
_cell_angle_gamma   90.00000000
_symmetry_Int_Tables_number   1
_chemical_formula_structural   Cu3Ni2C11
_chemical_formula_sum   'Cu12 Ni8 C44'
_cell_volume   735.89422797
_cell_formula_units_Z   4
loop_
 _symmetry_equiv_pos_site_id
 _symmetry_equiv_pos_as_xyz
  1  'x, y, z'
loop_
 _atom_site_type_symbol
 _atom_site_label
 _atom_site_symmetry_multiplicity
 _atom_site_fract_x
 _atom_site_fract_y
 _atom_site_fract_z
 _atom_site_occupancy
  C  C0  1  0.14885300  0.55725100  0.08731200  1
  C  C1  1  0.14885300  0.94274900  0.08731200  1
  C  C2  1  0.64885300  0.05725100  0.41268800  1
  C  C3  1  0.64885300  0.44274900  0.41268800  1
  C  C4  1  0.35114700  0.55725100  0.58731200  1
  C  C5  1  0.35114700  0.94274900  0.58731200  1
  C  C6  1  0.85114700  0.05725100  0.91268800  1
  C  C7  1  0.85114700  0.44274900  0.91268800  1
  Ni  Ni8  1  0.70000000  0.50005900  0.16438800  1
  Ni  Ni9  1  0.70000000  0.99994100  0.16438800  1
  Ni  Ni10  1  0.20000000  0.00005900  0.33561200  1
  Ni  Ni11  1  0.20000000  0.49994100  0.33561200  1
  Ni  Ni12  1  0.80000000  0.50005900  0.66438800  1
  Ni  Ni13  1  0.80000000  0.99994100  0.66438800  1
  Ni  Ni14  1  0.30000000  0.00005900  0.83561200  1
  Ni  Ni15  1  0.30000000  0.49994100  0.83561200  1
  Cu  Cu16  1  0.54232800  0.75000000  0.03850000  1
  Cu  Cu17  1  0.02358000  0.25000000  0.07771400  1
  Cu  Cu18  1  0.42465800  0.25000000  0.21170100  1
  Cu  Cu19  1  0.92465800  0.75000000  0.28829900  1
  Cu  Cu20  1  0.52358000  0.75000000  0.42228600  1
  Cu  Cu21  1  0.04232800  0.25000000  0.46150000  1
  Cu  Cu22  1  0.95767200  0.75000000  0.53850000  1
  Cu  Cu23  1  0.47642000  0.25000000  0.57771400  1
  Cu  Cu24  1  0.07534200  0.25000000  0.71170100  1
  Cu  Cu25  1  0.57534200  0.75000000  0.78829900  1
  Cu  Cu26  1  0.97642000  0.75000000  0.92228600  1
  Cu  Cu27  1  0.45767200  0.25000000  0.96150000  1
  C  C28  1  0.81188800  0.75000000  0.02911400  1
  C  C29  1  0.90291700  0.10106800  0.06948100  1
  C  C30  1  0.90291700  0.39893200  0.06948100  1
  C  C31  1  0.46446900  0.60849000  0.09822300  1
  C  C32  1  0.46446900  0.89151000  0.09822300  1
  C  C33  1  0.53137200  0.25000000  0.09059400  1
  C  C34  1  0.99178500  0.60408500  0.22849900  1
  C  C35  1  0.99178500  0.89591500  0.22849900  1
  C  C36  1  0.16027000  0.25000000  0.19301900  1
  C  C37  1  0.66027000  0.75000000  0.30698100  1
  C  C38  1  0.49178500  0.10408500  0.27150100  1
  C  C39  1  0.49178500  0.39591500  0.27150100  1
  C  C40  1  0.03137200  0.75000000  0.40940600  1
  C  C41  1  0.96446900  0.10849000  0.40177700  1
  C  C42  1  0.96446900  0.39151000  0.40177700  1
  C  C43  1  0.40291700  0.60106800  0.43051900  1
  C  C44  1  0.40291700  0.89893200  0.43051900  1
  C  C45  1  0.31188800  0.25000000  0.47088600  1
  C  C46  1  0.68811200  0.75000000  0.52911400  1
  C  C47  1  0.59708300  0.10106800  0.56948100  1
  C  C48  1  0.59708300  0.39893200  0.56948100  1
  C  C49  1  0.03553100  0.60849000  0.59822300  1
  C  C50  1  0.03553100  0.89151000  0.59822300  1
  C  C51  1  0.96862800  0.25000000  0.59059400  1
  C  C52  1  0.50821500  0.60408500  0.72849900  1
  C  C53  1  0.50821500  0.89591500  0.72849900  1
  C  C54  1  0.33973000  0.25000000  0.69301900  1
  C  C55  1  0.83973000  0.75000000  0.80698100  1
  C  C56  1  0.00821500  0.10408500  0.77150100  1
  C  C57  1  0.00821500  0.39591500  0.77150100  1
  C  C58  1  0.46862800  0.75000000  0.90940600  1
  C  C59  1  0.53553100  0.10849000  0.90177700  1
  C  C60  1  0.53553100  0.39151000  0.90177700  1
  C  C61  1  0.09708300  0.60106800  0.93051900  1
  C  C62  1  0.09708300  0.89893200  0.93051900  1
  C  C63  1  0.18811200  0.25000000  0.97088600  1
