# generated using pymatgen
data_Cu3Ni6C77
_symmetry_space_group_name_H-M   'P 1'
_cell_length_a   12.86373653
_cell_length_b   12.86373653
_cell_length_c   12.86373657
_cell_angle_alpha   80.94879752
_cell_angle_beta   80.94879752
_cell_angle_gamma   80.94879690
_symmetry_Int_Tables_number   1
_chemical_formula_structural   Cu3Ni6C77
_chemical_formula_sum   'Cu6 Ni12 C154'
_cell_volume   2056.68633970
_cell_formula_units_Z   2
loop_
 _symmetry_equiv_pos_site_id
 _symmetry_equiv_pos_as_xyz
  1  'x, y, z'
loop_
 _atom_site_type_symbol
 _atom_site_label
 _atom_site_symmetry_multiplicity
 _atom_site_fract_x
 _atom_site_fract_y
 _atom_site_fract_z
 _atom_site_occupancy
  C  C0  1  0.76511600  0.76511600  0.76511600  1
  C  C1  1  0.23488400  0.23488400  0.23488400  1
  C  C2  1  0.74619900  0.95078700  0.95078700  1
  C  C3  1  0.95078700  0.95078700  0.74619900  1
  C  C4  1  0.95078700  0.74619900  0.95078700  1
  C  C5  1  0.25380100  0.04921300  0.04921300  1
  C  C6  1  0.04921300  0.04921300  0.25380100  1
  C  C7  1  0.04921300  0.25380100  0.04921300  1
  C  C8  1  0.55019100  0.98057500  0.75569300  1
  C  C9  1  0.98057500  0.75569300  0.55019100  1
  C  C10  1  0.75569300  0.55019100  0.98057500  1
  C  C11  1  0.98057500  0.55019100  0.75569300  1
  C  C12  1  0.55019100  0.75569300  0.98057500  1
  C  C13  1  0.75569300  0.98057500  0.55019100  1
  C  C14  1  0.44980900  0.01942500  0.24430700  1
  C  C15  1  0.01942500  0.24430700  0.44980900  1
  C  C16  1  0.24430700  0.44980900  0.01942500  1
  C  C17  1  0.01942500  0.44980900  0.24430700  1
  C  C18  1  0.44980900  0.24430700  0.01942500  1
  C  C19  1  0.24430700  0.01942500  0.44980900  1
  C  C20  1  0.57923100  0.80396000  0.57923100  1
  C  C21  1  0.80396000  0.57923100  0.57923100  1
  C  C22  1  0.57923100  0.57923100  0.80396000  1
  C  C23  1  0.42076900  0.19604000  0.42076900  1
  C  C24  1  0.19604000  0.42076900  0.42076900  1
  C  C25  1  0.42076900  0.42076900  0.19604000  1
  C  C26  1  0.69106000  0.17043800  0.79039100  1
  C  C27  1  0.17043800  0.79039100  0.69106000  1
  C  C28  1  0.79039100  0.69106000  0.17043800  1
  C  C29  1  0.17043800  0.69106000  0.79039100  1
  C  C30  1  0.69106000  0.79039100  0.17043800  1
  C  C31  1  0.79039100  0.17043800  0.69106000  1
  C  C32  1  0.30894000  0.82956200  0.20960900  1
  C  C33  1  0.82956200  0.20960900  0.30894000  1
  C  C34  1  0.20960900  0.30894000  0.82956200  1
  C  C35  1  0.82956200  0.30894000  0.20960900  1
  C  C36  1  0.30894000  0.20960900  0.82956200  1
  C  C37  1  0.20960900  0.82956200  0.30894000  1
  C  C38  1  0.62694800  0.24391500  0.62694800  1
  C  C39  1  0.24391500  0.62694800  0.62694800  1
  C  C40  1  0.62694800  0.62694800  0.24391500  1
  C  C41  1  0.37305200  0.75608500  0.37305200  1
  C  C42  1  0.75608500  0.37305200  0.37305200  1
  C  C43  1  0.37305200  0.37305200  0.75608500  1
  C  C44  1  0.71619200  0.34209600  0.60841200  1
  C  C45  1  0.34209600  0.60841200  0.71619200  1
  C  C46  1  0.60841200  0.71619200  0.34209600  1
  C  C47  1  0.34209600  0.71619200  0.60841200  1
  C  C48  1  0.71619200  0.60841200  0.34209600  1
  C  C49  1  0.60841200  0.34209600  0.71619200  1
  C  C50  1  0.28380800  0.65790400  0.39158800  1
  C  C51  1  0.65790400  0.39158800  0.28380800  1
  C  C52  1  0.39158800  0.28380800  0.65790400  1
  C  C53  1  0.65790400  0.28380800  0.39158800  1
  C  C54  1  0.28380800  0.39158800  0.65790400  1
  C  C55  1  0.39158800  0.65790400  0.28380800  1
  C  C56  1  0.84612300  0.21272400  0.84612300  1
  C  C57  1  0.21272400  0.84612300  0.84612300  1
  C  C58  1  0.84612300  0.84612300  0.21272400  1
  C  C59  1  0.15387700  0.78727600  0.15387700  1
  C  C60  1  0.78727600  0.15387700  0.15387700  1
  C  C61  1  0.15387700  0.15387700  0.78727600  1
  C  C62  1  0.74123100  0.32303100  0.84904700  1
  C  C63  1  0.32303100  0.84904700  0.74123100  1
  C  C64  1  0.84904700  0.74123100  0.32303100  1
  C  C65  1  0.32303100  0.74123100  0.84904700  1
  C  C66  1  0.74123100  0.84904700  0.32303100  1
  C  C67  1  0.84904700  0.32303100  0.74123100  1
  C  C68  1  0.25876900  0.67696900  0.15095300  1
  C  C69  1  0.67696900  0.15095300  0.25876900  1
  C  C70  1  0.15095300  0.25876900  0.67696900  1
  C  C71  1  0.67696900  0.25876900  0.15095300  1
  C  C72  1  0.25876900  0.15095300  0.67696900  1
  C  C73  1  0.15095300  0.67696900  0.25876900  1
  Ni  Ni74  1  0.66687500  0.29252000  0.66687500  1
  Ni  Ni75  1  0.29252000  0.66687500  0.66687500  1
  Ni  Ni76  1  0.66687500  0.66687500  0.29252000  1
  Ni  Ni77  1  0.33312500  0.70748000  0.33312500  1
  Ni  Ni78  1  0.70748000  0.33312500  0.33312500  1
  Ni  Ni79  1  0.33312500  0.33312500  0.70748000  1
  Ni  Ni80  1  0.79790000  0.27374900  0.79790000  1
  Ni  Ni81  1  0.27374900  0.79790000  0.79790000  1
  Ni  Ni82  1  0.79790000  0.79790000  0.27374900  1
  Ni  Ni83  1  0.20210000  0.72625100  0.20210000  1
  Ni  Ni84  1  0.72625100  0.20210000  0.20210000  1
  Ni  Ni85  1  0.20210000  0.20210000  0.72625100  1
  Cu  Cu86  1  0.73715200  0.21937000  0.73715200  1
  Cu  Cu87  1  0.21937000  0.73715200  0.73715200  1
  Cu  Cu88  1  0.73715200  0.73715200  0.21937000  1
  Cu  Cu89  1  0.26284800  0.78063000  0.26284800  1
  Cu  Cu90  1  0.78063000  0.26284800  0.26284800  1
  Cu  Cu91  1  0.26284800  0.26284800  0.78063000  1
  C  C92  1  0.82937600  0.82937600  0.82937600  1
  C  C93  1  0.17062400  0.17062400  0.17062400  1
  C  C94  1  0.69012700  0.85097900  0.69012700  1
  C  C95  1  0.85097900  0.69012700  0.69012700  1
  C  C96  1  0.69012700  0.69012700  0.85097900  1
  C  C97  1  0.30987300  0.14902100  0.30987300  1
  C  C98  1  0.14902100  0.30987300  0.30987300  1
  C  C99  1  0.30987300  0.30987300  0.14902100  1
  C  C100  1  0.70862800  0.03996600  0.03996600  1
  C  C101  1  0.03996600  0.03996600  0.70862800  1
  C  C102  1  0.03996600  0.70862800  0.03996600  1
  C  C103  1  0.29137200  0.96003400  0.96003400  1
  C  C104  1  0.96003400  0.96003400  0.29137200  1
  C  C105  1  0.96003400  0.29137200  0.96003400  1
  C  C106  1  0.85763800  0.02006800  0.85763800  1
  C  C107  1  0.02006800  0.85763800  0.85763800  1
  C  C108  1  0.85763800  0.85763800  0.02006800  1
  C  C109  1  0.14236200  0.97993200  0.14236200  1
  C  C110  1  0.97993200  0.14236200  0.14236200  1
  C  C111  1  0.14236200  0.14236200  0.97993200  1
  C  C112  1  0.65143600  0.00337200  0.84511700  1
  C  C113  1  0.00337200  0.84511700  0.65143600  1
  C  C114  1  0.84511700  0.65143600  0.00337200  1
  C  C115  1  0.00337200  0.65143600  0.84511700  1
  C  C116  1  0.65143600  0.84511700  0.00337200  1
  C  C117  1  0.84511700  0.00337200  0.65143600  1
  C  C118  1  0.34856400  0.99662800  0.15488300  1
  C  C119  1  0.99662800  0.15488300  0.34856400  1
  C  C120  1  0.15488300  0.34856400  0.99662800  1
  C  C121  1  0.99662800  0.34856400  0.15488300  1
  C  C122  1  0.34856400  0.15488300  0.99662800  1
  C  C123  1  0.15488300  0.99662800  0.34856400  1
  C  C124  1  0.51606600  0.86606800  0.86606800  1
  C  C125  1  0.86606800  0.86606800  0.51606600  1
  C  C126  1  0.86606800  0.51606600  0.86606800  1
  C  C127  1  0.48393400  0.13393200  0.13393200  1
  C  C128  1  0.13393200  0.13393200  0.48393400  1
  C  C129  1  0.13393200  0.48393400  0.13393200  1
  C  C130  1  0.44862200  0.08142300  0.78031000  1
  C  C131  1  0.08142300  0.78031000  0.44862200  1
  C  C132  1  0.78031000  0.44862200  0.08142300  1
  C  C133  1  0.08142300  0.44862200  0.78031000  1
  C  C134  1  0.44862200  0.78031000  0.08142300  1
  C  C135  1  0.78031000  0.08142300  0.44862200  1
  C  C136  1  0.55137800  0.91857700  0.21969000  1
  C  C137  1  0.91857700  0.21969000  0.55137800  1
  C  C138  1  0.21969000  0.55137800  0.91857700  1
  C  C139  1  0.91857700  0.55137800  0.21969000  1
  C  C140  1  0.55137800  0.21969000  0.91857700  1
  C  C141  1  0.21969000  0.91857700  0.55137800  1
  C  C142  1  0.63554700  0.05323900  0.63554700  1
  C  C143  1  0.05323900  0.63554700  0.63554700  1
  C  C144  1  0.63554700  0.63554700  0.05323900  1
  C  C145  1  0.36445300  0.94676100  0.36445300  1
  C  C146  1  0.94676100  0.36445300  0.36445300  1
  C  C147  1  0.36445300  0.36445300  0.94676100  1
  C  C148  1  0.49326300  0.91469100  0.65511600  1
  C  C149  1  0.91469100  0.65511600  0.49326300  1
  C  C150  1  0.65511600  0.49326300  0.91469100  1
  C  C151  1  0.91469100  0.49326300  0.65511600  1
  C  C152  1  0.49326300  0.65511600  0.91469100  1
  C  C153  1  0.65511600  0.91469100  0.49326300  1
  C  C154  1  0.50673700  0.08530900  0.34488400  1
  C  C155  1  0.08530900  0.34488400  0.50673700  1
  C  C156  1  0.34488400  0.50673700  0.08530900  1
  C  C157  1  0.08530900  0.50673700  0.34488400  1
  C  C158  1  0.50673700  0.34488400  0.08530900  1
  C  C159  1  0.34488400  0.08530900  0.50673700  1
  C  C160  1  0.54244400  0.69954000  0.69954000  1
  C  C161  1  0.69954000  0.69954000  0.54244400  1
  C  C162  1  0.69954000  0.54244400  0.69954000  1
  C  C163  1  0.45755600  0.30046000  0.30046000  1
  C  C164  1  0.30046000  0.30046000  0.45755600  1
  C  C165  1  0.30046000  0.45755600  0.30046000  1
  C  C166  1  0.49446600  0.78659900  0.49446600  1
  C  C167  1  0.78659900  0.49446600  0.49446600  1
  C  C168  1  0.49446600  0.49446600  0.78659900  1
  C  C169  1  0.50553400  0.21340100  0.50553400  1
  C  C170  1  0.21340100  0.50553400  0.50553400  1
  C  C171  1  0.50553400  0.50553400  0.21340100  1
