# generated using pymatgen
data_CuNi13C15
_symmetry_space_group_name_H-M   'P 1'
_cell_length_a   8.52651500
_cell_length_b   10.26800400
_cell_length_c   13.10702100
_cell_angle_alpha   90.00000000
_cell_angle_beta   90.00000000
_cell_angle_gamma   90.00000000
_symmetry_Int_Tables_number   1
_chemical_formula_structural   CuNi13C15
_chemical_formula_sum   'Cu4 Ni52 C60'
_cell_volume   1147.52349124
_cell_formula_units_Z   4
loop_
 _symmetry_equiv_pos_site_id
 _symmetry_equiv_pos_as_xyz
  1  'x, y, z'
loop_
 _atom_site_type_symbol
 _atom_site_label
 _atom_site_symmetry_multiplicity
 _atom_site_fract_x
 _atom_site_fract_y
 _atom_site_fract_z
 _atom_site_occupancy
  C  C0  1  0.00436600  0.65396900  0.25000000  1
  C  C1  1  0.49563400  0.15396900  0.25000000  1
  C  C2  1  0.99563400  0.34603100  0.75000000  1
  C  C3  1  0.50436600  0.84603100  0.75000000  1
  C  C4  1  0.10832600  0.57720200  0.60841800  1
  C  C5  1  0.39167400  0.07720200  0.89158200  1
  C  C6  1  0.89167400  0.42279800  0.10841800  1
  C  C7  1  0.60832600  0.92279800  0.39158200  1
  C  C8  1  0.89167400  0.42279800  0.39158200  1
  C  C9  1  0.60832600  0.92279800  0.10841800  1
  C  C10  1  0.10832600  0.57720200  0.89158200  1
  C  C11  1  0.39167400  0.07720200  0.60841800  1
  C  C12  1  0.36296500  0.80561900  0.51874800  1
  C  C13  1  0.13703500  0.30561900  0.98125200  1
  C  C14  1  0.63703500  0.19438100  0.01874800  1
  C  C15  1  0.86296500  0.69438100  0.48125200  1
  C  C16  1  0.63703500  0.19438100  0.48125200  1
  C  C17  1  0.86296500  0.69438100  0.01874800  1
  C  C18  1  0.36296500  0.80561900  0.98125200  1
  C  C19  1  0.13703500  0.30561900  0.51874800  1
  C  C20  1  0.68665800  0.59692000  0.27927600  1
  C  C21  1  0.81334200  0.09692000  0.22072400  1
  C  C22  1  0.31334200  0.40308000  0.77927600  1
  C  C23  1  0.18665800  0.90308000  0.72072400  1
  C  C24  1  0.31334200  0.40308000  0.72072400  1
  C  C25  1  0.18665800  0.90308000  0.77927600  1
  C  C26  1  0.68665800  0.59692000  0.22072400  1
  C  C27  1  0.81334200  0.09692000  0.27927600  1
  C  C28  1  0.35784500  0.62517700  0.45941900  1
  C  C29  1  0.14215500  0.12517700  0.04058100  1
  C  C30  1  0.64215500  0.37482300  0.95941900  1
  C  C31  1  0.85784500  0.87482300  0.54058100  1
  C  C32  1  0.64215500  0.37482300  0.54058100  1
  C  C33  1  0.85784500  0.87482300  0.95941900  1
  C  C34  1  0.35784500  0.62517700  0.04058100  1
  C  C35  1  0.14215500  0.12517700  0.45941900  1
  C  C36  1  0.31140200  0.84074400  0.13779600  1
  C  C37  1  0.18859800  0.34074400  0.36220400  1
  C  C38  1  0.68859800  0.15925600  0.63779600  1
  C  C39  1  0.81140200  0.65925600  0.86220400  1
  C  C40  1  0.68859800  0.15925600  0.86220400  1
  C  C41  1  0.81140200  0.65925600  0.63779600  1
  C  C42  1  0.31140200  0.84074400  0.36220400  1
  C  C43  1  0.18859800  0.34074400  0.13779600  1
  C  C44  1  0.91436800  0.87394700  0.30806700  1
  C  C45  1  0.58563200  0.37394700  0.19193300  1
  C  C46  1  0.08563200  0.12605300  0.80806700  1
  C  C47  1  0.41436800  0.62605300  0.69193300  1
  C  C48  1  0.08563200  0.12605300  0.69193300  1
  C  C49  1  0.41436800  0.62605300  0.80806700  1
  C  C50  1  0.91436800  0.87394700  0.19193300  1
  C  C51  1  0.58563200  0.37394700  0.30806700  1
  C  C52  1  0.44690900  0.25610500  0.75000000  1
  C  C53  1  0.05309100  0.75610500  0.75000000  1
  C  C54  1  0.55309100  0.74389500  0.25000000  1
  C  C55  1  0.94690900  0.24389500  0.25000000  1
  C  C56  1  0.15482600  0.98116500  0.25000000  1
  C  C57  1  0.34517400  0.48116500  0.25000000  1
  C  C58  1  0.84517400  0.01883500  0.75000000  1
  C  C59  1  0.65482600  0.51883500  0.75000000  1
  Ni  Ni60  1  0.93934100  0.00983500  0.65482800  1
  Ni  Ni61  1  0.56065900  0.50983500  0.84517200  1
  Ni  Ni62  1  0.06065900  0.99016500  0.15482800  1
  Ni  Ni63  1  0.43934100  0.49016500  0.34517200  1
  Ni  Ni64  1  0.06065900  0.99016500  0.34517200  1
  Ni  Ni65  1  0.43934100  0.49016500  0.15482800  1
  Ni  Ni66  1  0.93934100  0.00983500  0.84517200  1
  Ni  Ni67  1  0.56065900  0.50983500  0.65482800  1
  Ni  Ni68  1  0.22703500  0.84378000  0.25000000  1
  Ni  Ni69  1  0.27296500  0.34378000  0.25000000  1
  Ni  Ni70  1  0.77296500  0.15622000  0.75000000  1
  Ni  Ni71  1  0.72703500  0.65622000  0.75000000  1
  Ni  Ni72  1  0.22214600  0.58202200  0.25000000  1
  Ni  Ni73  1  0.27785400  0.08202200  0.25000000  1
  Ni  Ni74  1  0.77785400  0.41797800  0.75000000  1
  Ni  Ni75  1  0.72214600  0.91797800  0.75000000  1
  Ni  Ni76  1  0.91469100  0.62551900  0.40113400  1
  Ni  Ni77  1  0.58530900  0.12551900  0.09886600  1
  Ni  Ni78  1  0.08530900  0.37448100  0.90113400  1
  Ni  Ni79  1  0.41469100  0.87448100  0.59886600  1
  Ni  Ni80  1  0.08530900  0.37448100  0.59886600  1
  Ni  Ni81  1  0.41469100  0.87448100  0.90113400  1
  Ni  Ni82  1  0.91469100  0.62551900  0.09886600  1
  Ni  Ni83  1  0.58530900  0.12551900  0.40113400  1
  Ni  Ni84  1  0.07367300  0.75949600  0.65731400  1
  Ni  Ni85  1  0.42632700  0.25949600  0.84268600  1
  Ni  Ni86  1  0.92632700  0.24050400  0.15731400  1
  Ni  Ni87  1  0.57367300  0.74050400  0.34268600  1
  Ni  Ni88  1  0.92632700  0.24050400  0.34268600  1
  Ni  Ni89  1  0.57367300  0.74050400  0.15731400  1
  Ni  Ni90  1  0.07367300  0.75949600  0.84268600  1
  Ni  Ni91  1  0.42632700  0.25949600  0.65731400  1
  Ni  Ni92  1  0.31301400  0.67239200  0.51871600  1
  Ni  Ni93  1  0.18698600  0.17239200  0.98128400  1
  Ni  Ni94  1  0.68698600  0.32760800  0.01871600  1
  Ni  Ni95  1  0.81301400  0.82760800  0.48128400  1
  Ni  Ni96  1  0.68698600  0.32760800  0.48128400  1
  Ni  Ni97  1  0.81301400  0.82760800  0.01871600  1
  Ni  Ni98  1  0.31301400  0.67239200  0.98128400  1
  Ni  Ni99  1  0.18698600  0.17239200  0.51871600  1
  Ni  Ni100  1  0.12593300  0.17930500  0.75000000  1
  Ni  Ni101  1  0.37406700  0.67930500  0.75000000  1
  Ni  Ni102  1  0.87406700  0.82069500  0.25000000  1
  Ni  Ni103  1  0.62593300  0.32069500  0.25000000  1
  Ni  Ni104  1  0.63099100  0.12709900  0.57457100  1
  Ni  Ni105  1  0.86900900  0.62709900  0.92542900  1
  Ni  Ni106  1  0.36900900  0.87290100  0.07457100  1
  Ni  Ni107  1  0.13099100  0.37290100  0.42542900  1
  Ni  Ni108  1  0.36900900  0.87290100  0.42542900  1
  Ni  Ni109  1  0.13099100  0.37290100  0.07457100  1
  Ni  Ni110  1  0.63099100  0.12709900  0.92542900  1
  Ni  Ni111  1  0.86900900  0.62709900  0.57457100  1
  Cu  Cu112  1  0.43242300  0.02823300  0.75000000  1
  Cu  Cu113  1  0.06757700  0.52823300  0.75000000  1
  Cu  Cu114  1  0.56757700  0.97176700  0.25000000  1
  Cu  Cu115  1  0.93242300  0.47176700  0.25000000  1
