# generated using pymatgen
data_Cu(NiC)3
_symmetry_space_group_name_H-M   'P 1'
_cell_length_a   4.95049100
_cell_length_b   5.92856200
_cell_length_c   10.22748300
_cell_angle_alpha   90.00000000
_cell_angle_beta   90.00000000
_cell_angle_gamma   90.00000000
_symmetry_Int_Tables_number   1
_chemical_formula_structural   Cu(NiC)3
_chemical_formula_sum   'Cu4 Ni12 C12'
_cell_volume   300.16939342
_cell_formula_units_Z   4
loop_
 _symmetry_equiv_pos_site_id
 _symmetry_equiv_pos_as_xyz
  1  'x, y, z'
loop_
 _atom_site_type_symbol
 _atom_site_label
 _atom_site_symmetry_multiplicity
 _atom_site_fract_x
 _atom_site_fract_y
 _atom_site_fract_z
 _atom_site_occupancy
  C  C0  1  0.95750600  0.25404200  0.59044000  1
  C  C1  1  0.45750600  0.75404200  0.90956000  1
  C  C2  1  0.54249400  0.25404200  0.09044000  1
  C  C3  1  0.04249400  0.75404200  0.40956000  1
  C  C4  1  0.51563300  0.51009200  0.51476600  1
  C  C5  1  0.48436700  0.01009200  0.48523400  1
  C  C6  1  0.01254600  0.73785400  0.72732400  1
  C  C7  1  0.51254600  0.23785400  0.77267600  1
  C  C8  1  0.98436700  0.51009200  0.01476600  1
  C  C9  1  0.01563300  0.01009200  0.98523400  1
  C  C10  1  0.48745400  0.73785400  0.22732400  1
  C  C11  1  0.98745400  0.23785400  0.27267600  1
  Ni  Ni12  1  0.25343200  0.75224200  0.57353700  1
  Ni  Ni13  1  0.32687100  0.25083500  0.59609000  1
  Ni  Ni14  1  0.75436800  0.49515600  0.67298600  1
  Ni  Ni15  1  0.25436800  0.99515600  0.82701400  1
  Ni  Ni16  1  0.82687100  0.75083500  0.90391000  1
  Ni  Ni17  1  0.75343200  0.25224200  0.92646300  1
  Ni  Ni18  1  0.24656800  0.75224200  0.07353700  1
  Ni  Ni19  1  0.17312900  0.25083500  0.09609000  1
  Ni  Ni20  1  0.74563200  0.49515600  0.17298600  1
  Ni  Ni21  1  0.24563200  0.99515600  0.32701400  1
  Ni  Ni22  1  0.67312900  0.75083500  0.40391000  1
  Ni  Ni23  1  0.74656800  0.25224200  0.42646300  1
  Cu  Cu24  1  0.75744100  0.99950300  0.66153700  1
  Cu  Cu25  1  0.25744100  0.49950300  0.83846300  1
  Cu  Cu26  1  0.74255900  0.99950300  0.16153700  1
  Cu  Cu27  1  0.24255900  0.49950300  0.33846300  1
