# generated using pymatgen
data_Cu2NiC12
_symmetry_space_group_name_H-M   'P 1'
_cell_length_a   3.29718527
_cell_length_b   14.76558411
_cell_length_c   6.07152945
_cell_angle_alpha   84.31953259
_cell_angle_beta   105.71597572
_cell_angle_gamma   96.46617747
_symmetry_Int_Tables_number   1
_chemical_formula_structural   Cu2NiC12
_chemical_formula_sum   'Cu4 Ni2 C24'
_cell_volume   282.00570721
_cell_formula_units_Z   2
loop_
 _symmetry_equiv_pos_site_id
 _symmetry_equiv_pos_as_xyz
  1  'x, y, z'
loop_
 _atom_site_type_symbol
 _atom_site_label
 _atom_site_symmetry_multiplicity
 _atom_site_fract_x
 _atom_site_fract_y
 _atom_site_fract_z
 _atom_site_occupancy
  C  C0  1  0.99357900  0.30231600  0.68525900  1
  C  C1  1  0.99486400  0.80177500  0.18773900  1
  C  C2  1  0.63551200  0.31134200  0.95982600  1
  C  C3  1  0.63695200  0.81091200  0.46216100  1
  C  C4  1  0.97092400  0.14377600  0.79531100  1
  C  C5  1  0.97021100  0.64416900  0.29495100  1
  C  C6  1  0.65924500  0.46909000  0.85251700  1
  C  C7  1  0.65999800  0.96898600  0.35241800  1
  C  C8  1  0.32629300  0.13330900  0.51669200  1
  C  C9  1  0.32536300  0.63388300  0.01589200  1
  C  C10  1  0.30419000  0.47917800  0.13164800  1
  C  C11  1  0.30481600  0.97945400  0.63097000  1
  Ni  Ni12  1  0.31620000  0.80724100  0.82479500  1
  Ni  Ni13  1  0.31381900  0.30569500  0.32302500  1
  Cu  Cu14  1  0.64805300  0.14014500  0.15308000  1
  Cu  Cu15  1  0.64686200  0.63970300  0.65259200  1
  Cu  Cu16  1  0.98289600  0.47357300  0.49468000  1
  Cu  Cu17  1  0.98313200  0.97263700  0.99502200  1
  C  C18  1  0.50619200  0.37423900  0.63886000  1
  C  C19  1  0.50910200  0.87368000  0.14216400  1
  C  C20  1  0.12308600  0.23930100  0.00645000  1
  C  C21  1  0.12437600  0.73908500  0.50840000  1
  C  C22  1  0.83629800  0.20513400  0.46514000  1
  C  C23  1  0.83584700  0.70551300  0.96425000  1
  C  C24  1  0.79470300  0.40764400  0.18391700  1
  C  C25  1  0.79507800  0.90790700  0.68363400  1
  C  C26  1  0.16901900  0.03921100  0.30008100  1
  C  C27  1  0.16879800  0.53937000  0.80015000  1
  C  C28  1  0.46010900  0.07333600  0.84813600  1
  C  C29  1  0.46065100  0.57387000  0.34709200  1
