# generated using pymatgen
data_CuNiC6
_symmetry_space_group_name_H-M   'P 1'
_cell_length_a   10.71008400
_cell_length_b   5.05084200
_cell_length_c   8.01550703
_cell_angle_alpha   52.51318509
_cell_angle_beta   90.00000000
_cell_angle_gamma   90.00000000
_symmetry_Int_Tables_number   1
_chemical_formula_structural   CuNiC6
_chemical_formula_sum   'Cu4 Ni4 C24'
_cell_volume   344.05746362
_cell_formula_units_Z   4
loop_
 _symmetry_equiv_pos_site_id
 _symmetry_equiv_pos_as_xyz
  1  'x, y, z'
loop_
 _atom_site_type_symbol
 _atom_site_label
 _atom_site_symmetry_multiplicity
 _atom_site_fract_x
 _atom_site_fract_y
 _atom_site_fract_z
 _atom_site_occupancy
  C  C0  1  0.66327300  0.68662000  0.50545500  1
  C  C1  1  0.42160200  0.46361700  0.74055500  1
  C  C2  1  0.92160200  0.53638300  0.75944500  1
  C  C3  1  0.16327300  0.31338000  0.99454500  1
  C  C4  1  0.83672700  0.68662000  0.00545500  1
  C  C5  1  0.07839800  0.46361700  0.24055500  1
  C  C6  1  0.57839800  0.53638300  0.25944500  1
  C  C7  1  0.33672700  0.31338000  0.49454500  1
  Ni  Ni8  1  0.08628800  0.06490500  0.74561100  1
  Ni  Ni9  1  0.58628800  0.93509500  0.75438900  1
  Ni  Ni10  1  0.41371200  0.06490500  0.24561100  1
  Ni  Ni11  1  0.91371200  0.93509500  0.25438900  1
  Cu  Cu12  1  0.83634000  0.19363600  0.50023200  1
  Cu  Cu13  1  0.33634000  0.80636400  0.99976800  1
  Cu  Cu14  1  0.66366000  0.19363600  0.00023200  1
  Cu  Cu15  1  0.16366000  0.80636400  0.49976800  1
  C  C16  1  0.15969800  0.17443500  0.52954600  1
  C  C17  1  0.66064900  0.24765900  0.54426200  1
  C  C18  1  0.44194200  0.05429500  0.74639600  1
  C  C19  1  0.08659300  0.39006200  0.74735100  1
  C  C20  1  0.58659300  0.60993800  0.75264900  1
  C  C21  1  0.94194200  0.94570500  0.75360400  1
  C  C22  1  0.16064900  0.75234100  0.95573800  1
  C  C23  1  0.65969800  0.82556500  0.97045400  1
  C  C24  1  0.34030200  0.17443500  0.02954600  1
  C  C25  1  0.83935100  0.24765900  0.04426200  1
  C  C26  1  0.05805800  0.05429500  0.24639600  1
  C  C27  1  0.41340700  0.39006200  0.24735100  1
  C  C28  1  0.91340700  0.60993800  0.25264900  1
  C  C29  1  0.55805800  0.94570500  0.25360400  1
  C  C30  1  0.33935100  0.75234100  0.45573800  1
  C  C31  1  0.84030200  0.82556500  0.47045400  1
