# generated using pymatgen
data_CuNiC
_symmetry_space_group_name_H-M   'P 1'
_cell_length_a   3.08140700
_cell_length_b   4.78374100
_cell_length_c   9.55164500
_cell_angle_alpha   86.65172753
_cell_angle_beta   90.00000000
_cell_angle_gamma   90.00000000
_symmetry_Int_Tables_number   1
_chemical_formula_structural   CuNiC
_chemical_formula_sum   'Cu4 Ni4 C4'
_cell_volume   140.55713821
_cell_formula_units_Z   4
loop_
 _symmetry_equiv_pos_site_id
 _symmetry_equiv_pos_as_xyz
  1  'x, y, z'
loop_
 _atom_site_type_symbol
 _atom_site_label
 _atom_site_symmetry_multiplicity
 _atom_site_fract_x
 _atom_site_fract_y
 _atom_site_fract_z
 _atom_site_occupancy
  C  C0  1  0.00000000  0.94697800  0.99997400  1
  C  C1  1  0.00000000  0.01330700  0.49896100  1
  C  C2  1  0.50000000  0.48359800  0.24856200  1
  C  C3  1  0.50000000  0.55892800  0.74994500  1
  Ni  Ni4  1  0.50000000  0.80296500  0.90267600  1
  Ni  Ni5  1  0.00000000  0.68214900  0.15774000  1
  Ni  Ni6  1  0.00000000  0.70972400  0.64672100  1
  Ni  Ni7  1  0.00000000  0.29592100  0.35247400  1
  Cu  Cu8  1  0.50000000  0.81313700  0.40529100  1
  Cu  Cu9  1  0.00000000  0.30809000  0.84538300  1
  Cu  Cu10  1  0.50000000  0.18297400  0.09143000  1
  Cu  Cu11  1  0.50000000  0.20222900  0.60084400  1
