# generated using pymatgen
data_Cu(NiC)9
_symmetry_space_group_name_H-M   'P 1'
_cell_length_a   5.22605694
_cell_length_b   5.22605694
_cell_length_c   13.12776611
_cell_angle_alpha   79.09310223
_cell_angle_beta   79.09310223
_cell_angle_gamma   33.48412924
_symmetry_Int_Tables_number   1
_chemical_formula_structural   Cu(NiC)9
_chemical_formula_sum   'Cu1 Ni9 C9'
_cell_volume   193.90951157
_cell_formula_units_Z   1
loop_
 _symmetry_equiv_pos_site_id
 _symmetry_equiv_pos_as_xyz
  1  'x, y, z'
loop_
 _atom_site_type_symbol
 _atom_site_label
 _atom_site_symmetry_multiplicity
 _atom_site_fract_x
 _atom_site_fract_y
 _atom_site_fract_z
 _atom_site_occupancy
  C  C0  1  0.79855000  0.79855000  0.39854900  1
  C  C1  1  0.60378500  0.60378500  0.79981000  1
  C  C2  1  0.20006500  0.20006500  0.59704100  1
  C  C3  1  0.39654300  0.39654300  0.19413300  1
  C  C4  1  0.90117400  0.90117400  0.69864300  1
  C  C5  1  0.68603000  0.68603000  0.10501300  1
  C  C6  1  0.32156000  0.32156000  0.89821000  1
  C  C7  1  0.49796300  0.49796300  0.50074000  1
  C  C8  1  0.09534000  0.09534000  0.30399600  1
  Ni  Ni9  1  0.85801300  0.85801300  0.55271900  1
  Ni  Ni10  1  0.94732000  0.94732000  0.84412400  1
  Ni  Ni11  1  0.53991500  0.53991500  0.64861200  1
  Ni  Ni12  1  0.73339600  0.73339600  0.25128900  1
  Ni  Ni13  1  0.45564600  0.45564600  0.35559300  1
  Ni  Ni14  1  0.26397300  0.26397300  0.75534200  1
  Ni  Ni15  1  0.31089400  0.31089400  0.04939500  1
  Ni  Ni16  1  0.05120900  0.05120900  0.16010900  1
  Ni  Ni17  1  0.13740700  0.13740700  0.45134000  1
  Cu  Cu18  1  0.66749300  0.66749300  0.94082400  1
