# generated using pymatgen
data_Cu2(NiC4)3
_symmetry_space_group_name_H-M   'P 1'
_cell_length_a   8.68092400
_cell_length_b   12.31392650
_cell_length_c   9.03662100
_cell_angle_alpha   90.00000000
_cell_angle_beta   90.00000000
_cell_angle_gamma   90.89589575
_symmetry_Int_Tables_number   1
_chemical_formula_structural   Cu2(NiC4)3
_chemical_formula_sum   'Cu8 Ni12 C48'
_cell_volume   965.86290241
_cell_formula_units_Z   4
loop_
 _symmetry_equiv_pos_site_id
 _symmetry_equiv_pos_as_xyz
  1  'x, y, z'
loop_
 _atom_site_type_symbol
 _atom_site_label
 _atom_site_symmetry_multiplicity
 _atom_site_fract_x
 _atom_site_fract_y
 _atom_site_fract_z
 _atom_site_occupancy
  Ni  Ni0  1  0.03491500  0.48937600  0.25393300  1
  Ni  Ni1  1  0.10867000  0.84838200  0.37845700  1
  Ni  Ni2  1  0.10848400  0.14110200  0.11156900  1
  Ni  Ni3  1  0.39133000  0.65161800  0.87845700  1
  Ni  Ni4  1  0.39151600  0.35889800  0.61156900  1
  Ni  Ni5  1  0.46508500  0.01062400  0.75393300  1
  Ni  Ni6  1  0.53491400  0.98937600  0.24606700  1
  Ni  Ni7  1  0.60848400  0.64110200  0.38843100  1
  Ni  Ni8  1  0.60867000  0.34838200  0.12154300  1
  Ni  Ni9  1  0.89151600  0.85889800  0.88843100  1
  Ni  Ni10  1  0.89133000  0.15161800  0.62154300  1
  Ni  Ni11  1  0.96508600  0.51062400  0.74606700  1
  Cu  Cu12  1  0.25316100  0.88588100  0.02837800  1
  Cu  Cu13  1  0.24683900  0.61411900  0.52837800  1
  Cu  Cu14  1  0.25257800  0.38126200  0.97066000  1
  Cu  Cu15  1  0.24742200  0.11873800  0.47066000  1
  Cu  Cu16  1  0.75257800  0.88126200  0.52934000  1
  Cu  Cu17  1  0.74742200  0.61873800  0.02934000  1
  Cu  Cu18  1  0.75316100  0.38588100  0.47162200  1
  Cu  Cu19  1  0.74683900  0.11411900  0.97162200  1
  C  C20  1  0.07025200  0.44935400  0.87082100  1
  C  C21  1  0.07672400  0.90111100  0.88562800  1
  C  C22  1  0.06781800  0.61253900  0.66371700  1
  C  C23  1  0.06849200  0.18962900  0.57663800  1
  C  C24  1  0.09346400  0.58579900  0.37257300  1
  C  C25  1  0.12011000  0.83958500  0.19164100  1
  C  C26  1  0.13902800  0.97528600  0.43019700  1
  C  C27  1  0.12822000  0.24325100  0.99474400  1
  C  C28  1  0.15845500  0.17914200  0.28001500  1
  C  C29  1  0.18454800  0.43214700  0.17471900  1
  C  C30  1  0.23631000  0.77105500  0.46712900  1
  C  C31  1  0.26369000  0.72894500  0.96712900  1
  C  C32  1  0.22930900  0.04240800  0.05898200  1
  C  C33  1  0.27069100  0.45759200  0.55898200  1
  C  C34  1  0.31545200  0.06785300  0.67471900  1
  C  C35  1  0.34154500  0.32085800  0.78001500  1
  C  C36  1  0.36097200  0.52471400  0.93019700  1
  C  C37  1  0.37178000  0.25674900  0.49474400  1
  C  C38  1  0.37989000  0.66041500  0.69164100  1
  C  C39  1  0.40653600  0.91420100  0.87257300  1
  C  C40  1  0.43218200  0.88746100  0.16371700  1
  C  C41  1  0.42327600  0.59888900  0.38562800  1
  C  C42  1  0.43150800  0.31037100  0.07663800  1
  C  C43  1  0.42974800  0.05064600  0.37082100  1
  C  C44  1  0.57025200  0.94935400  0.62917900  1
  C  C45  1  0.56849200  0.68962900  0.92336200  1
  C  C46  1  0.57672300  0.40111100  0.61437200  1
  C  C47  1  0.56781800  0.11253900  0.83628300  1
  C  C48  1  0.59346400  0.08579900  0.12742700  1
  C  C49  1  0.62011000  0.33958500  0.30835900  1
  C  C50  1  0.62822000  0.74325100  0.50525600  1
  C  C51  1  0.63902800  0.47528600  0.06980300  1
  C  C52  1  0.65845500  0.67914200  0.21998500  1
  C  C53  1  0.68454800  0.93214700  0.32528100  1
  C  C54  1  0.72930900  0.54240800  0.44101800  1
  C  C55  1  0.77069100  0.95759200  0.94101800  1
  C  C56  1  0.73631000  0.27105500  0.03287100  1
  C  C57  1  0.76369000  0.22894500  0.53287100  1
  C  C58  1  0.81545200  0.56785300  0.82528100  1
  C  C59  1  0.84154500  0.82085800  0.71998500  1
  C  C60  1  0.87178000  0.75674900  0.00525600  1
  C  C61  1  0.86097200  0.02471400  0.56980300  1
  C  C62  1  0.87989000  0.16041500  0.80835900  1
  C  C63  1  0.90653600  0.41420100  0.62742700  1
  C  C64  1  0.93150800  0.81037100  0.42336200  1
  C  C65  1  0.93218200  0.38746100  0.33628300  1
  C  C66  1  0.92327700  0.09888900  0.11437200  1
  C  C67  1  0.92974800  0.55064600  0.12917900  1
