# generated using pymatgen
data_CuNi4C9
_symmetry_space_group_name_H-M   'P 1'
_cell_length_a   13.31792400
_cell_length_b   6.65505400
_cell_length_c   6.82746914
_cell_angle_alpha   89.19902103
_cell_angle_beta   90.00000000
_cell_angle_gamma   90.00000000
_symmetry_Int_Tables_number   1
_chemical_formula_structural   CuNi4C9
_chemical_formula_sum   'Cu4 Ni16 C36'
_cell_volume   605.06972459
_cell_formula_units_Z   4
loop_
 _symmetry_equiv_pos_site_id
 _symmetry_equiv_pos_as_xyz
  1  'x, y, z'
loop_
 _atom_site_type_symbol
 _atom_site_label
 _atom_site_symmetry_multiplicity
 _atom_site_fract_x
 _atom_site_fract_y
 _atom_site_fract_z
 _atom_site_occupancy
  C  C0  1  0.62969900  0.00209000  0.66114100  1
  C  C1  1  0.12969900  0.49791000  0.33885900  1
  C  C2  1  0.37030100  0.99791000  0.33885900  1
  C  C3  1  0.87030100  0.50209000  0.66114100  1
  C  C4  1  0.86987300  0.98070500  0.62633600  1
  C  C5  1  0.36987300  0.51929500  0.37366400  1
  C  C6  1  0.13012700  0.01929500  0.37366400  1
  C  C7  1  0.63012700  0.48070500  0.62633600  1
  C  C8  1  0.66278100  0.44347900  0.40793100  1
  C  C9  1  0.16278100  0.05652100  0.59206900  1
  C  C10  1  0.33721900  0.55652100  0.59206900  1
  C  C11  1  0.83721900  0.94347900  0.40793100  1
  C  C12  1  0.66867200  0.26391200  0.06686900  1
  C  C13  1  0.16867200  0.23608800  0.93313100  1
  C  C14  1  0.33132800  0.73608800  0.93313100  1
  C  C15  1  0.83132800  0.76391200  0.06686900  1
  C  C16  1  0.75350700  0.09801800  0.08383200  1
  C  C17  1  0.25350700  0.40198200  0.91616800  1
  C  C18  1  0.24649300  0.90198200  0.91616800  1
  C  C19  1  0.74649300  0.59801800  0.08383200  1
  C  C20  1  0.60835300  0.97788000  0.19765000  1
  C  C21  1  0.10835300  0.52212000  0.80235000  1
  C  C22  1  0.39164700  0.02212000  0.80235000  1
  C  C23  1  0.89164700  0.47788000  0.19765000  1
  C  C24  1  0.91295500  0.25431100  0.25509800  1
  C  C25  1  0.41295500  0.24568900  0.74490200  1
  C  C26  1  0.08704500  0.74568900  0.74490200  1
  C  C27  1  0.58704500  0.75431100  0.25509800  1
  C  C28  1  0.50946700  0.41540900  0.18793000  1
  C  C29  1  0.00946700  0.08459100  0.81207000  1
  C  C30  1  0.49053300  0.58459100  0.81207000  1
  C  C31  1  0.99053300  0.91540900  0.18793000  1
  C  C32  1  0.90929000  0.09787000  0.93127100  1
  C  C33  1  0.40929000  0.40213000  0.06872900  1
  C  C34  1  0.09071000  0.90213000  0.06872900  1
  C  C35  1  0.59071000  0.59787000  0.93127100  1
  Ni  Ni36  1  0.67552900  0.39923200  0.54491100  1
  Ni  Ni37  1  0.17552900  0.10076800  0.45508900  1
  Ni  Ni38  1  0.32447100  0.60076800  0.45508900  1
  Ni  Ni39  1  0.82447100  0.89923200  0.54491100  1
  Ni  Ni40  1  0.68492900  0.12376800  0.03254800  1
  Ni  Ni41  1  0.18492900  0.37623200  0.96745200  1
  Ni  Ni42  1  0.31507100  0.87623200  0.96745200  1
  Ni  Ni43  1  0.81507100  0.62376800  0.03254800  1
  Ni  Ni44  1  0.93046500  0.39246800  0.29124500  1
  Ni  Ni45  1  0.43046500  0.10753200  0.70875500  1
  Ni  Ni46  1  0.06953500  0.60753200  0.70875500  1
  Ni  Ni47  1  0.56953500  0.89246800  0.29124500  1
  Ni  Ni48  1  0.93850900  0.12806200  0.80043500  1
  Ni  Ni49  1  0.43850900  0.37193800  0.19956500  1
  Ni  Ni50  1  0.06149100  0.87193800  0.19956500  1
  Ni  Ni51  1  0.56149100  0.62806200  0.80043500  1
  Cu  Cu52  1  0.63248500  0.51072600  0.15567200  1
  Cu  Cu53  1  0.13248500  0.98927400  0.84432800  1
  Cu  Cu54  1  0.36751500  0.48927400  0.84432800  1
  Cu  Cu55  1  0.86751500  0.01072600  0.15567200  1
