# generated using pymatgen
data_Cu8Ni3C38
_symmetry_space_group_name_H-M   'P 1'
_cell_length_a   9.80154255
_cell_length_b   9.80154255
_cell_length_c   13.77274000
_cell_angle_alpha   90.00000000
_cell_angle_beta   90.00000000
_cell_angle_gamma   120.00000369
_symmetry_Int_Tables_number   1
_chemical_formula_structural   Cu8Ni3C38
_chemical_formula_sum   'Cu16 Ni6 C76'
_cell_volume   1145.88180495
_cell_formula_units_Z   2
loop_
 _symmetry_equiv_pos_site_id
 _symmetry_equiv_pos_as_xyz
  1  'x, y, z'
loop_
 _atom_site_type_symbol
 _atom_site_label
 _atom_site_symmetry_multiplicity
 _atom_site_fract_x
 _atom_site_fract_y
 _atom_site_fract_z
 _atom_site_occupancy
  C  C0  1  0.00000000  0.00000000  0.00000000  1
  C  C1  1  0.00000000  0.00000000  0.50000000  1
  C  C2  1  0.09768100  0.33292600  0.06445700  1
  C  C3  1  0.23524400  0.33292600  0.56445700  1
  C  C4  1  0.09768100  0.76475600  0.56445700  1
  C  C5  1  0.33333300  0.66666700  0.87876600  1
  C  C6  1  0.33333300  0.66666700  0.37876600  1
  C  C7  1  0.23524400  0.90231900  0.06445700  1
  C  C8  1  0.66707400  0.76475600  0.06445700  1
  C  C9  1  0.33292600  0.09768100  0.43554300  1
  C  C10  1  0.66707400  0.90231900  0.56445700  1
  C  C11  1  0.33292600  0.23524400  0.93554300  1
  C  C12  1  0.76475600  0.09768100  0.93554300  1
  C  C13  1  0.66666700  0.33333300  0.12123400  1
  C  C14  1  0.66666700  0.33333300  0.62123400  1
  C  C15  1  0.90231900  0.23524400  0.43554300  1
  C  C16  1  0.76475600  0.66707400  0.43554300  1
  C  C17  1  0.90231900  0.66707400  0.93554300  1
  Ni  Ni18  1  0.00000000  0.43456200  0.25000000  1
  Ni  Ni19  1  0.00000000  0.56543800  0.75000000  1
  Ni  Ni20  1  0.43456200  0.43456200  0.75000000  1
  Ni  Ni21  1  0.56543800  0.56543800  0.25000000  1
  Ni  Ni22  1  0.43456200  0.00000000  0.25000000  1
  Ni  Ni23  1  0.56543800  0.00000000  0.75000000  1
  Cu  Cu24  1  0.09071900  0.31885800  0.84335500  1
  Cu  Cu25  1  0.22813900  0.31885800  0.34335500  1
  Cu  Cu26  1  0.09071900  0.77186100  0.34335500  1
  Cu  Cu27  1  0.33333300  0.66666700  0.62452000  1
  Cu  Cu28  1  0.33333300  0.66666700  0.12452000  1
  Cu  Cu29  1  0.22813900  0.90928100  0.84335500  1
  Cu  Cu30  1  0.31885800  0.09071900  0.65664500  1
  Cu  Cu31  1  0.68114200  0.77186100  0.84335500  1
  Cu  Cu32  1  0.31885800  0.22813900  0.15664500  1
  Cu  Cu33  1  0.68114200  0.90928100  0.34335500  1
  Cu  Cu34  1  0.77186100  0.09071900  0.15664500  1
  Cu  Cu35  1  0.66666700  0.33333300  0.37548000  1
  Cu  Cu36  1  0.66666700  0.33333300  0.87548000  1
  Cu  Cu37  1  0.90928100  0.22813900  0.65664500  1
  Cu  Cu38  1  0.77186100  0.68114200  0.65664500  1
  Cu  Cu39  1  0.90928100  0.68114200  0.15664500  1
  C  C40  1  0.00000000  0.21395100  0.75000000  1
  C  C41  1  0.00103200  0.22778600  0.56721300  1
  C  C42  1  0.07766300  0.33064600  0.34470300  1
  C  C43  1  0.21395100  0.21395100  0.25000000  1
  C  C44  1  0.22675400  0.22778600  0.06721300  1
  C  C45  1  0.25298300  0.33064600  0.84470300  1
  C  C46  1  0.11123300  0.48421500  0.83318900  1
  C  C47  1  0.19012700  0.50946700  0.16009400  1
  C  C48  1  0.11123300  0.62701800  0.33318900  1
  C  C49  1  0.00103200  0.77324600  0.06721300  1
  C  C50  1  0.00000000  0.78604900  0.25000000  1
  C  C51  1  0.07766300  0.74701700  0.84470300  1
  C  C52  1  0.31934000  0.50946700  0.66009400  1
  C  C53  1  0.37298200  0.48421500  0.33318900  1
  C  C54  1  0.19012700  0.68066000  0.66009400  1
  C  C55  1  0.33333300  0.66666700  0.51396500  1
  C  C56  1  0.33333300  0.66666700  0.01396500  1
  C  C57  1  0.31934000  0.80987300  0.16009400  1
  C  C58  1  0.51578500  0.62701800  0.83318900  1
  C  C59  1  0.49053300  0.68066000  0.16009400  1
  C  C60  1  0.25298300  0.92233700  0.34470300  1
  C  C61  1  0.21395100  0.00000000  0.75000000  1
  C  C62  1  0.22675400  0.99896800  0.56721300  1
  C  C63  1  0.22778600  0.00103200  0.93278700  1
  C  C64  1  0.37298200  0.88876700  0.83318900  1
  C  C65  1  0.49053300  0.80987300  0.66009400  1
  C  C66  1  0.33064600  0.07766300  0.15529700  1
  C  C67  1  0.51578500  0.88876700  0.33318900  1
  C  C68  1  0.66935400  0.74701700  0.34470300  1
  C  C69  1  0.22778600  0.22675400  0.43278700  1
  C  C70  1  0.77221400  0.77324600  0.56721300  1
  C  C71  1  0.78604900  0.78604900  0.75000000  1
  C  C72  1  0.33064600  0.25298300  0.65529700  1
  C  C73  1  0.48421500  0.11123300  0.66681100  1
  C  C74  1  0.66935400  0.92233700  0.84470300  1
  C  C75  1  0.50946700  0.19012700  0.33990600  1
  C  C76  1  0.62701800  0.11123300  0.16681100  1
  C  C77  1  0.77221400  0.99896800  0.06721300  1
  C  C78  1  0.77324600  0.00103200  0.43278700  1
  C  C79  1  0.78604900  0.00000000  0.25000000  1
  C  C80  1  0.74701700  0.07766300  0.65529700  1
  C  C81  1  0.50946700  0.31934000  0.83990600  1
  C  C82  1  0.48421500  0.37298200  0.16681100  1
  C  C83  1  0.68066000  0.19012700  0.83990600  1
  C  C84  1  0.66666700  0.33333300  0.48603500  1
  C  C85  1  0.66666700  0.33333300  0.98603500  1
  C  C86  1  0.80987300  0.31934000  0.33990600  1
  C  C87  1  0.62701800  0.51578500  0.66681100  1
  C  C88  1  0.68066000  0.49053300  0.33990600  1
  C  C89  1  0.92233700  0.25298300  0.15529700  1
  C  C90  1  0.99896800  0.22675400  0.93278700  1
  C  C91  1  0.88876700  0.37298200  0.66681100  1
  C  C92  1  0.80987300  0.49053300  0.83990600  1
  C  C93  1  0.88876700  0.51578500  0.16681100  1
  C  C94  1  0.74701700  0.66935400  0.15529700  1
  C  C95  1  0.77324600  0.77221400  0.93278700  1
  C  C96  1  0.92233700  0.66935400  0.65529700  1
  C  C97  1  0.99896800  0.77221400  0.43278700  1
