# generated using pymatgen
data_CuNiC5
_symmetry_space_group_name_H-M   'P 1'
_cell_length_a   5.33554000
_cell_length_b   8.28780100
_cell_length_c   8.49908886
_cell_angle_alpha   74.29572299
_cell_angle_beta   90.00000000
_cell_angle_gamma   90.00000000
_symmetry_Int_Tables_number   1
_chemical_formula_structural   CuNiC5
_chemical_formula_sum   'Cu4 Ni4 C20'
_cell_volume   361.79969748
_cell_formula_units_Z   4
loop_
 _symmetry_equiv_pos_site_id
 _symmetry_equiv_pos_as_xyz
  1  'x, y, z'
loop_
 _atom_site_type_symbol
 _atom_site_label
 _atom_site_symmetry_multiplicity
 _atom_site_fract_x
 _atom_site_fract_y
 _atom_site_fract_z
 _atom_site_occupancy
  C  C0  1  0.85024800  0.02877300  0.07725800  1
  C  C1  1  0.33396100  0.49637200  0.28450100  1
  C  C2  1  0.14975200  0.02877300  0.57725800  1
  C  C3  1  0.66603900  0.49637200  0.78450100  1
  Ni  Ni4  1  0.33573200  0.13461000  0.21004200  1
  Ni  Ni5  1  0.82702900  0.63236500  0.38093000  1
  Ni  Ni6  1  0.66426800  0.13461000  0.71004200  1
  Ni  Ni7  1  0.17297100  0.63236500  0.88093000  1
  Cu  Cu8  1  0.67112700  0.75318300  0.00577100  1
  Cu  Cu9  1  0.83246600  0.25959800  0.33139500  1
  Cu  Cu10  1  0.32887300  0.75318300  0.50577100  1
  Cu  Cu11  1  0.16753400  0.25959800  0.83139500  1
  C  C12  1  0.18354300  0.12233300  0.01292700  1
  C  C13  1  0.38219800  0.68253500  0.04076800  1
  C  C14  1  0.68565700  0.18183200  0.19693500  1
  C  C15  1  0.13159900  0.29451700  0.28130300  1
  C  C16  1  0.78625300  0.78601300  0.17455300  1
  C  C17  1  0.69243500  0.43354100  0.34152400  1
  C  C18  1  0.81645700  0.12233300  0.51292700  1
  C  C19  1  0.17119400  0.61513700  0.43605600  1
  C  C20  1  0.29178000  0.94039200  0.37983600  1
  C  C21  1  0.61780200  0.68253500  0.54076800  1
  C  C22  1  0.31434300  0.18183200  0.69693500  1
  C  C23  1  0.86840100  0.29451700  0.78130300  1
  C  C24  1  0.21374700  0.78601300  0.67455300  1
  C  C25  1  0.30756500  0.43354100  0.84152400  1
  C  C26  1  0.82880600  0.61513700  0.93605600  1
  C  C27  1  0.70822000  0.94039200  0.87983600  1
