# generated using pymatgen
data_Cu3(Ni2C9)2
_symmetry_space_group_name_H-M   'P 1'
_cell_length_a   10.27629151
_cell_length_b   10.27629151
_cell_length_c   7.24541678
_cell_angle_alpha   78.52462994
_cell_angle_beta   78.52462994
_cell_angle_gamma   41.09324040
_symmetry_Int_Tables_number   1
_chemical_formula_structural   Cu3(Ni2C9)2
_chemical_formula_sum   'Cu6 Ni8 C36'
_cell_volume   491.42883222
_cell_formula_units_Z   2
loop_
 _symmetry_equiv_pos_site_id
 _symmetry_equiv_pos_as_xyz
  1  'x, y, z'
loop_
 _atom_site_type_symbol
 _atom_site_label
 _atom_site_symmetry_multiplicity
 _atom_site_fract_x
 _atom_site_fract_y
 _atom_site_fract_z
 _atom_site_occupancy
  Ni  Ni0  1  0.16026100  0.17462300  0.15175200  1
  Ni  Ni1  1  0.17462300  0.16026100  0.65175200  1
  Ni  Ni2  1  0.83973900  0.82537700  0.84824800  1
  Ni  Ni3  1  0.82537700  0.83973900  0.34824800  1
  Ni  Ni4  1  0.34660400  0.80449600  0.34073600  1
  Ni  Ni5  1  0.80449600  0.34660400  0.84073600  1
  Ni  Ni6  1  0.65339600  0.19550400  0.65926400  1
  Ni  Ni7  1  0.19550400  0.65339600  0.15926400  1
  Cu  Cu8  1  0.88249400  0.11750600  0.25000000  1
  Cu  Cu9  1  0.11750600  0.88249400  0.75000000  1
  Cu  Cu10  1  0.53661400  0.80103800  0.91176900  1
  Cu  Cu11  1  0.80103800  0.53661400  0.41176900  1
  Cu  Cu12  1  0.46338600  0.19896200  0.08823100  1
  Cu  Cu13  1  0.19896200  0.46338600  0.58823100  1
  C  C14  1  0.49756800  0.50243200  0.25000000  1
  C  C15  1  0.50243200  0.49756800  0.75000000  1
  C  C16  1  0.99133300  0.40910900  0.88801400  1
  C  C17  1  0.40910900  0.99133300  0.38801400  1
  C  C18  1  0.00866700  0.59089100  0.11198600  1
  C  C19  1  0.59089100  0.00866700  0.61198600  1
  C  C20  1  0.07671100  0.05212900  0.25815600  1
  C  C21  1  0.05212900  0.07671100  0.75815600  1
  C  C22  1  0.92328900  0.94787100  0.74184400  1
  C  C23  1  0.94787100  0.92328900  0.24184400  1
  C  C24  1  0.78168200  0.25939500  0.07675000  1
  C  C25  1  0.25939500  0.78168200  0.57675000  1
  C  C26  1  0.21831800  0.74060500  0.92325000  1
  C  C27  1  0.74060500  0.21831800  0.42325000  1
  C  C28  1  0.70197500  0.77428500  0.92852000  1
  C  C29  1  0.77428500  0.70197500  0.42852000  1
  C  C30  1  0.29802500  0.22571500  0.07148000  1
  C  C31  1  0.22571500  0.29802500  0.57148000  1
  C  C32  1  0.62293800  0.60155200  0.89768900  1
  C  C33  1  0.60155200  0.62293800  0.39768900  1
  C  C34  1  0.37706200  0.39844800  0.10231100  1
  C  C35  1  0.39844800  0.37706200  0.60231100  1
  C  C36  1  0.38830300  0.89621400  0.09433600  1
  C  C37  1  0.89621400  0.38830300  0.59433600  1
  C  C38  1  0.61169700  0.10378600  0.90566400  1
  C  C39  1  0.10378600  0.61169700  0.40566400  1
  C  C40  1  0.41735000  0.94618100  0.74225100  1
  C  C41  1  0.94618100  0.41735000  0.24225100  1
  C  C42  1  0.58265000  0.05381900  0.25774900  1
  C  C43  1  0.05381900  0.58265000  0.75774900  1
  C  C44  1  0.36174700  0.63825300  0.25000000  1
  C  C45  1  0.63825300  0.36174700  0.75000000  1
  C  C46  1  0.04016800  0.28046000  0.90743900  1
  C  C47  1  0.28046000  0.04016800  0.40743900  1
  C  C48  1  0.95983200  0.71954000  0.09256100  1
  C  C49  1  0.71954000  0.95983200  0.59256100  1
