# generated using pymatgen
data_Cu(NiC2)17
_symmetry_space_group_name_H-M   'P 1'
_cell_length_a   14.15207330
_cell_length_b   14.15207330
_cell_length_c   14.15207330
_cell_angle_alpha   60.00000000
_cell_angle_beta   60.00000000
_cell_angle_gamma   60.00000000
_symmetry_Int_Tables_number   1
_chemical_formula_structural   Cu(NiC2)17
_chemical_formula_sum   'Cu2 Ni34 C68'
_cell_volume   2004.21916342
_cell_formula_units_Z   2
loop_
 _symmetry_equiv_pos_site_id
 _symmetry_equiv_pos_as_xyz
  1  'x, y, z'
loop_
 _atom_site_type_symbol
 _atom_site_label
 _atom_site_symmetry_multiplicity
 _atom_site_fract_x
 _atom_site_fract_y
 _atom_site_fract_z
 _atom_site_occupancy
  Ni  Ni0  1  0.50000000  0.50000000  0.50000000  1
  Ni  Ni1  1  0.75000000  0.75000000  0.75000000  1
  Ni  Ni2  1  0.77677700  0.40774100  0.40774100  1
  Ni  Ni3  1  0.40774100  0.77677700  0.40774100  1
  Ni  Ni4  1  0.40774100  0.40774100  0.77677700  1
  Ni  Ni5  1  0.40774100  0.40774100  0.40774100  1
  Ni  Ni6  1  0.47322300  0.84225900  0.84225900  1
  Ni  Ni7  1  0.84225900  0.47322300  0.84225900  1
  Ni  Ni8  1  0.84225900  0.84225900  0.47322300  1
  Ni  Ni9  1  0.84225900  0.84225900  0.84225900  1
  Ni  Ni10  1  0.86058500  0.25432500  0.25432500  1
  Ni  Ni11  1  0.25432500  0.86058500  0.63076500  1
  Ni  Ni12  1  0.25432500  0.63076500  0.86058500  1
  Ni  Ni13  1  0.63076500  0.25432500  0.25432500  1
  Ni  Ni14  1  0.25432500  0.25432500  0.86058500  1
  Ni  Ni15  1  0.86058500  0.63076500  0.25432500  1
  Ni  Ni16  1  0.63076500  0.86058500  0.25432500  1
  Ni  Ni17  1  0.25432500  0.25432500  0.63076500  1
  Ni  Ni18  1  0.25432500  0.86058500  0.25432500  1
  Ni  Ni19  1  0.63076500  0.25432500  0.86058500  1
  Ni  Ni20  1  0.86058500  0.25432500  0.63076500  1
  Ni  Ni21  1  0.25432500  0.63076500  0.25432500  1
  Ni  Ni22  1  0.38941500  0.99567500  0.99567500  1
  Ni  Ni23  1  0.99567500  0.38941500  0.61923500  1
  Ni  Ni24  1  0.99567500  0.61923500  0.38941500  1
  Ni  Ni25  1  0.61923500  0.99567500  0.99567500  1
  Ni  Ni26  1  0.99567500  0.99567500  0.38941500  1
  Ni  Ni27  1  0.38941500  0.61923500  0.99567500  1
  Ni  Ni28  1  0.61923500  0.38941500  0.99567500  1
  Ni  Ni29  1  0.99567500  0.99567500  0.61923500  1
  Ni  Ni30  1  0.99567500  0.38941500  0.99567500  1
  Ni  Ni31  1  0.61923500  0.99567500  0.38941500  1
  Ni  Ni32  1  0.38941500  0.99567500  0.61923500  1
  Ni  Ni33  1  0.99567500  0.61923500  0.99567500  1
  Cu  Cu34  1  0.25000000  0.25000000  0.25000000  1
  Cu  Cu35  1  0.00000000  0.00000000  0.00000000  1
  C  C36  1  0.63842000  0.45386000  0.45386000  1
  C  C37  1  0.45386000  0.63842000  0.45386000  1
  C  C38  1  0.45386000  0.45386000  0.63842000  1
  C  C39  1  0.45386000  0.45386000  0.45386000  1
  C  C40  1  0.61158000  0.79614000  0.79614000  1
  C  C41  1  0.79614000  0.61158000  0.79614000  1
  C  C42  1  0.79614000  0.79614000  0.61158000  1
  C  C43  1  0.79614000  0.79614000  0.79614000  1
  C  C44  1  0.82003100  0.33086500  0.33086500  1
  C  C45  1  0.33086500  0.82003100  0.51823800  1
  C  C46  1  0.33086500  0.51823800  0.82003100  1
  C  C47  1  0.51823800  0.33086500  0.33086500  1
  C  C48  1  0.33086500  0.33086500  0.82003100  1
  C  C49  1  0.82003100  0.51823800  0.33086500  1
  C  C50  1  0.51823800  0.82003100  0.33086500  1
  C  C51  1  0.33086500  0.33086500  0.51823800  1
  C  C52  1  0.33086500  0.82003100  0.33086500  1
  C  C53  1  0.51823800  0.33086500  0.82003100  1
  C  C54  1  0.82003100  0.33086500  0.51823800  1
  C  C55  1  0.33086500  0.51823800  0.33086500  1
  C  C56  1  0.42996900  0.91913500  0.91913500  1
  C  C57  1  0.91913500  0.42996900  0.73176200  1
  C  C58  1  0.91913500  0.73176200  0.42996900  1
  C  C59  1  0.73176200  0.91913500  0.91913500  1
  C  C60  1  0.91913500  0.91913500  0.42996900  1
  C  C61  1  0.42996900  0.73176200  0.91913500  1
  C  C62  1  0.73176200  0.42996900  0.91913500  1
  C  C63  1  0.91913500  0.91913500  0.73176200  1
  C  C64  1  0.91913500  0.42996900  0.91913500  1
  C  C65  1  0.73176200  0.91913500  0.42996900  1
  C  C66  1  0.42996900  0.91913500  0.73176200  1
  C  C67  1  0.91913500  0.73176200  0.91913500  1
  C  C68  1  0.74820200  0.25179800  0.25179800  1
  C  C69  1  0.25179800  0.74820200  0.74820200  1
  C  C70  1  0.25179800  0.25179800  0.74820200  1
  C  C71  1  0.74820200  0.74820200  0.25179800  1
  C  C72  1  0.25179800  0.74820200  0.25179800  1
  C  C73  1  0.74820200  0.25179800  0.74820200  1
  C  C74  1  0.50179800  0.99820200  0.99820200  1
  C  C75  1  0.99820200  0.50179800  0.50179800  1
  C  C76  1  0.99820200  0.99820200  0.50179800  1
  C  C77  1  0.50179800  0.50179800  0.99820200  1
  C  C78  1  0.99820200  0.50179800  0.99820200  1
  C  C79  1  0.50179800  0.99820200  0.50179800  1
  C  C80  1  0.93896900  0.31103100  0.12500000  1
  C  C81  1  0.31103100  0.93896900  0.62500000  1
  C  C82  1  0.12500000  0.62500000  0.93896900  1
  C  C83  1  0.62500000  0.12500000  0.31103100  1
  C  C84  1  0.31103100  0.12500000  0.93896900  1
  C  C85  1  0.93896900  0.62500000  0.31103100  1
  C  C86  1  0.62500000  0.93896900  0.12500000  1
  C  C87  1  0.12500000  0.31103100  0.62500000  1
  C  C88  1  0.12500000  0.93896900  0.31103100  1
  C  C89  1  0.62500000  0.31103100  0.93896900  1
  C  C90  1  0.93896900  0.12500000  0.62500000  1
  C  C91  1  0.31103100  0.62500000  0.12500000  1
  C  C92  1  0.93896900  0.12500000  0.31103100  1
  C  C93  1  0.31103100  0.62500000  0.93896900  1
  C  C94  1  0.12500000  0.93896900  0.62500000  1
  C  C95  1  0.62500000  0.31103100  0.12500000  1
  C  C96  1  0.31103100  0.93896900  0.12500000  1
  C  C97  1  0.93896900  0.31103100  0.62500000  1
  C  C98  1  0.62500000  0.12500000  0.93896900  1
  C  C99  1  0.12500000  0.62500000  0.31103100  1
  C  C100  1  0.12500000  0.31103100  0.93896900  1
  C  C101  1  0.62500000  0.93896900  0.31103100  1
  C  C102  1  0.93896900  0.62500000  0.12500000  1
  C  C103  1  0.31103100  0.12500000  0.62500000  1
