# generated using pymatgen
data_Cu5NiC30
_symmetry_space_group_name_H-M   'P 1'
_cell_length_a   8.43030158
_cell_length_b   8.43030158
_cell_length_c   8.43030146
_cell_angle_alpha   61.60475211
_cell_angle_beta   61.60475211
_cell_angle_gamma   61.60475105
_symmetry_Int_Tables_number   1
_chemical_formula_structural   Cu5NiC30
_chemical_formula_sum   'Cu5 Ni1 C30'
_cell_volume   438.90691372
_cell_formula_units_Z   1
loop_
 _symmetry_equiv_pos_site_id
 _symmetry_equiv_pos_as_xyz
  1  'x, y, z'
loop_
 _atom_site_type_symbol
 _atom_site_label
 _atom_site_symmetry_multiplicity
 _atom_site_fract_x
 _atom_site_fract_y
 _atom_site_fract_z
 _atom_site_occupancy
  Ni  Ni0  1  0.14223500  0.14223500  0.14223500  1
  Cu  Cu1  1  0.99815400  0.99815400  0.99815400  1
  Cu  Cu2  1  0.64640700  0.64640700  0.64640700  1
  Cu  Cu3  1  0.50050500  0.50050500  0.50050500  1
  Cu  Cu4  1  0.85370700  0.85370700  0.85370700  1
  Cu  Cu5  1  0.35398100  0.35398100  0.35398100  1
  C  C6  1  0.95378400  0.25069000  0.54427400  1
  C  C7  1  0.54427400  0.95378400  0.25069000  1
  C  C8  1  0.25069000  0.54427400  0.95378400  1
  C  C9  1  0.75096300  0.45259000  0.04832800  1
  C  C10  1  0.45259000  0.04832800  0.75096300  1
  C  C11  1  0.04832800  0.75096300  0.45259000  1
  C  C12  1  0.50420600  0.10700600  0.32462500  1
  C  C13  1  0.32462500  0.50420600  0.10700600  1
  C  C14  1  0.10700600  0.32462500  0.50420600  1
  C  C15  1  0.94044900  0.09422600  0.74809400  1
  C  C16  1  0.99438300  0.17945400  0.39046500  1
  C  C17  1  0.74971900  0.40559000  0.56104900  1
  C  C18  1  0.74809400  0.94044900  0.09422600  1
  C  C19  1  0.56104900  0.74971900  0.40559000  1
  C  C20  1  0.82436300  0.60678000  0.00546700  1
  C  C21  1  0.40559000  0.56104900  0.74971900  1
  C  C22  1  0.90634800  0.24892600  0.06238900  1
  C  C23  1  0.60678000  0.00546700  0.82436300  1
  C  C24  1  0.39046500  0.99438300  0.17945400  1
  C  C25  1  0.09422600  0.74809400  0.94044900  1
  C  C26  1  0.59583700  0.43808900  0.25112900  1
  C  C27  1  0.17945400  0.39046500  0.99438300  1
  C  C28  1  0.43808900  0.25112900  0.59583700  1
  C  C29  1  0.24892600  0.06238900  0.90634800  1
  C  C30  1  0.25112900  0.59583700  0.43808900  1
  C  C31  1  0.00546700  0.82436300  0.60678000  1
  C  C32  1  0.06238900  0.90634800  0.24892600  1
  C  C33  1  0.89275700  0.68024200  0.49279200  1
  C  C34  1  0.68024200  0.49279200  0.89275700  1
  C  C35  1  0.49279200  0.89275700  0.68024200  1
