# generated using pymatgen
data_CuNi2C33
_symmetry_space_group_name_H-M   'P 1'
_cell_length_a   8.70600199
_cell_length_b   8.70600199
_cell_length_c   8.70600126
_cell_angle_alpha   59.85059034
_cell_angle_beta   59.85059034
_cell_angle_gamma   59.85059338
_symmetry_Int_Tables_number   1
_chemical_formula_structural   CuNi2C33
_chemical_formula_sum   'Cu1 Ni2 C33'
_cell_volume   465.01419955
_cell_formula_units_Z   1
loop_
 _symmetry_equiv_pos_site_id
 _symmetry_equiv_pos_as_xyz
  1  'x, y, z'
loop_
 _atom_site_type_symbol
 _atom_site_label
 _atom_site_symmetry_multiplicity
 _atom_site_fract_x
 _atom_site_fract_y
 _atom_site_fract_z
 _atom_site_occupancy
  C  C0  1  0.14149500  0.14149500  0.14149500  1
  C  C1  1  0.35764100  0.35764100  0.35764100  1
  C  C2  1  0.64158300  0.64158300  0.64158300  1
  Ni  Ni3  1  0.00377600  0.00377600  0.00377600  1
  Ni  Ni4  1  0.49993800  0.49993800  0.49993800  1
  Cu  Cu5  1  0.85740000  0.85740000  0.85740000  1
  C  C6  1  0.74859600  0.04118600  0.45656900  1
  C  C7  1  0.25217500  0.96152800  0.53681600  1
  C  C8  1  0.53681600  0.25217500  0.96152800  1
  C  C9  1  0.96152800  0.53681600  0.25217500  1
  C  C10  1  0.04118600  0.45656900  0.74859600  1
  C  C11  1  0.45656900  0.74859600  0.04118600  1
  C  C12  1  0.12462500  0.49651100  0.30539100  1
  C  C13  1  0.30539100  0.12462500  0.49651100  1
  C  C14  1  0.05966500  0.26883800  0.91579700  1
  C  C15  1  0.49651100  0.30539100  0.12462500  1
  C  C16  1  0.01441100  0.61496000  0.79956600  1
  C  C17  1  0.22921000  0.43585600  0.58215300  1
  C  C18  1  0.26883800  0.91579700  0.05966500  1
  C  C19  1  0.43585600  0.58215300  0.22921000  1
  C  C20  1  0.19776000  0.00014900  0.37472000  1
  C  C21  1  0.58215300  0.22921000  0.43585600  1
  C  C22  1  0.08799400  0.94545100  0.72861200  1
  C  C23  1  0.37472000  0.19776000  0.00014900  1
  C  C24  1  0.61496000  0.79956600  0.01441100  1
  C  C25  1  0.91579700  0.05966500  0.26883800  1
  C  C26  1  0.41828400  0.77205600  0.55671300  1
  C  C27  1  0.79956600  0.01441100  0.61496000  1
  C  C28  1  0.55671300  0.41828400  0.77205600  1
  C  C29  1  0.72861200  0.08799400  0.94545100  1
  C  C30  1  0.77205600  0.55671300  0.41828400  1
  C  C31  1  0.00014900  0.37472000  0.19776000  1
  C  C32  1  0.50047500  0.69805800  0.87404100  1
  C  C33  1  0.94545100  0.72861200  0.08799400  1
  C  C34  1  0.69805800  0.87404100  0.50047500  1
  C  C35  1  0.87404100  0.50047500  0.69805800  1
