# generated using pymatgen
data_CuNiC5
_symmetry_space_group_name_H-M   'P 1'
_cell_length_a   7.69273500
_cell_length_b   15.71730700
_cell_length_c   16.23097600
_cell_angle_alpha   90.00000000
_cell_angle_beta   90.00000000
_cell_angle_gamma   90.00000000
_symmetry_Int_Tables_number   1
_chemical_formula_structural   CuNiC5
_chemical_formula_sum   'Cu8 Ni8 C40'
_cell_volume   1962.47233776
_cell_formula_units_Z   8
loop_
 _symmetry_equiv_pos_site_id
 _symmetry_equiv_pos_as_xyz
  1  'x, y, z'
loop_
 _atom_site_type_symbol
 _atom_site_label
 _atom_site_symmetry_multiplicity
 _atom_site_fract_x
 _atom_site_fract_y
 _atom_site_fract_z
 _atom_site_occupancy
  Ni  Ni0  1  0.75000000  0.52140000  0.10512800  1
  Ni  Ni1  1  0.25000000  0.81099300  0.09284500  1
  Ni  Ni2  1  0.75000000  0.31099300  0.40715500  1
  Ni  Ni3  1  0.25000000  0.02140000  0.39487200  1
  Ni  Ni4  1  0.75000000  0.97860000  0.60512800  1
  Ni  Ni5  1  0.25000000  0.68900700  0.59284500  1
  Ni  Ni6  1  0.75000000  0.18900700  0.90715500  1
  Ni  Ni7  1  0.25000000  0.47860000  0.89487200  1
  Cu  Cu8  1  0.25000000  0.21050400  0.10248500  1
  Cu  Cu9  1  0.75000000  0.03714800  0.22120300  1
  Cu  Cu10  1  0.25000000  0.53714800  0.27879700  1
  Cu  Cu11  1  0.75000000  0.71050400  0.39751400  1
  Cu  Cu12  1  0.25000000  0.28949600  0.60248600  1
  Cu  Cu13  1  0.75000000  0.46285200  0.72120300  1
  Cu  Cu14  1  0.25000000  0.96285200  0.77879700  1
  Cu  Cu15  1  0.75000000  0.78949600  0.89751400  1
  C  C16  1  0.99035600  0.32640700  0.02777900  1
  C  C17  1  0.50964400  0.32640700  0.02777900  1
  C  C18  1  0.75000000  0.83871100  0.07566600  1
  C  C19  1  0.97901500  0.07797600  0.07636100  1
  C  C20  1  0.52098500  0.07797600  0.07636100  1
  C  C21  1  0.25000000  0.51891500  0.09349300  1
  C  C22  1  0.98715800  0.67269900  0.22264300  1
  C  C23  1  0.51284200  0.67269900  0.22264300  1
  C  C24  1  0.97589300  0.40951100  0.24824800  1
  C  C25  1  0.52410700  0.40951100  0.24824800  1
  C  C26  1  0.47589300  0.90951100  0.25175200  1
  C  C27  1  0.02410700  0.90951100  0.25175200  1
  C  C28  1  0.48715800  0.17269900  0.27735700  1
  C  C29  1  0.01284200  0.17269900  0.27735700  1
  C  C30  1  0.75000000  0.01891500  0.40650600  1
  C  C31  1  0.47901500  0.57797600  0.42363900  1
  C  C32  1  0.02098500  0.57797600  0.42363900  1
  C  C33  1  0.25000000  0.33871100  0.42433400  1
  C  C34  1  0.49035600  0.82640700  0.47222100  1
  C  C35  1  0.00964400  0.82640700  0.47222100  1
  C  C36  1  0.99035600  0.17359300  0.52777900  1
  C  C37  1  0.50964400  0.17359300  0.52777900  1
  C  C38  1  0.75000000  0.66128900  0.57566600  1
  C  C39  1  0.97901500  0.42202400  0.57636100  1
  C  C40  1  0.52098500  0.42202400  0.57636100  1
  C  C41  1  0.25000000  0.98108500  0.59349400  1
  C  C42  1  0.98715800  0.82730100  0.72264300  1
  C  C43  1  0.51284200  0.82730100  0.72264300  1
  C  C44  1  0.97589300  0.09048900  0.74824800  1
  C  C45  1  0.52410700  0.09048900  0.74824800  1
  C  C46  1  0.47589300  0.59048900  0.75175200  1
  C  C47  1  0.02410700  0.59048900  0.75175200  1
  C  C48  1  0.48715800  0.32730100  0.77735700  1
  C  C49  1  0.01284200  0.32730100  0.77735700  1
  C  C50  1  0.75000000  0.48108500  0.90650600  1
  C  C51  1  0.47901500  0.92202400  0.92363900  1
  C  C52  1  0.02098500  0.92202400  0.92363900  1
  C  C53  1  0.25000000  0.16128900  0.92433400  1
  C  C54  1  0.49035600  0.67359300  0.97222100  1
  C  C55  1  0.00964400  0.67359300  0.97222100  1
