# generated using pymatgen
data_Cu(NiC3)4
_symmetry_space_group_name_H-M   'P 1'
_cell_length_a   7.01741500
_cell_length_b   9.48770000
_cell_length_c   14.21123400
_cell_angle_alpha   90.00000000
_cell_angle_beta   90.00000000
_cell_angle_gamma   90.00000000
_symmetry_Int_Tables_number   1
_chemical_formula_structural   Cu(NiC3)4
_chemical_formula_sum   'Cu4 Ni16 C48'
_cell_volume   946.17157172
_cell_formula_units_Z   4
loop_
 _symmetry_equiv_pos_site_id
 _symmetry_equiv_pos_as_xyz
  1  'x, y, z'
loop_
 _atom_site_type_symbol
 _atom_site_label
 _atom_site_symmetry_multiplicity
 _atom_site_fract_x
 _atom_site_fract_y
 _atom_site_fract_z
 _atom_site_occupancy
  C  C0  1  0.65774600  0.08891000  0.83069500  1
  C  C1  1  0.06371100  0.15685400  0.53867000  1
  C  C2  1  0.56371100  0.34314600  0.46133000  1
  C  C3  1  0.15774600  0.41109000  0.16930500  1
  C  C4  1  0.34225400  0.58891000  0.66930500  1
  C  C5  1  0.93628900  0.65685400  0.96133000  1
  C  C6  1  0.43628900  0.84314600  0.03867000  1
  C  C7  1  0.84225400  0.91109000  0.33069500  1
  Ni  Ni8  1  0.46425600  0.02886500  0.56660000  1
  Ni  Ni9  1  0.24457000  0.06218500  0.89878300  1
  Ni  Ni10  1  0.31405100  0.09730900  0.21683200  1
  Ni  Ni11  1  0.74027400  0.13518300  0.17702600  1
  Ni  Ni12  1  0.24027400  0.36481700  0.82297400  1
  Ni  Ni13  1  0.81405100  0.40269100  0.78316800  1
  Ni  Ni14  1  0.74457000  0.43781500  0.10121700  1
  Ni  Ni15  1  0.96425600  0.47113500  0.43340000  1
  Ni  Ni16  1  0.53574400  0.52886500  0.93340000  1
  Ni  Ni17  1  0.75543000  0.56218500  0.60121700  1
  Ni  Ni18  1  0.68594900  0.59730900  0.28316800  1
  Ni  Ni19  1  0.25972600  0.63518300  0.32297400  1
  Ni  Ni20  1  0.75972600  0.86481700  0.67702600  1
  Ni  Ni21  1  0.18594900  0.90269100  0.71683200  1
  Ni  Ni22  1  0.25543000  0.93781500  0.39878300  1
  Ni  Ni23  1  0.03574400  0.97113500  0.06660000  1
  Cu  Cu24  1  0.00778400  0.19786700  0.34842900  1
  Cu  Cu25  1  0.50778400  0.30213300  0.65157100  1
  Cu  Cu26  1  0.99221600  0.69786700  0.15157100  1
  Cu  Cu27  1  0.49221600  0.80213300  0.84842900  1
  C  C28  1  0.12497100  0.98929400  0.81213200  1
  C  C29  1  0.20240200  0.98034000  0.14927100  1
  C  C30  1  0.07340900  0.03240400  0.42944500  1
  C  C31  1  0.82487600  0.01033000  0.10774900  1
  C  C32  1  0.09044300  0.08484000  0.98431500  1
  C  C33  1  0.50929800  0.13667000  0.16022000  1
  C  C34  1  0.79882800  0.10328700  0.28456600  1
  C  C35  1  0.46119200  0.19204400  0.53338000  1
  C  C36  1  0.32508800  0.21475600  0.86297200  1
  C  C37  1  0.18546700  0.23378700  0.24100400  1
  C  C38  1  0.68546700  0.26621300  0.75899600  1
  C  C39  1  0.82508800  0.28524400  0.13702800  1
  C  C40  1  0.96119200  0.30795600  0.46662000  1
  C  C41  1  0.29882800  0.39671300  0.71543400  1
  C  C42  1  0.00929800  0.36333000  0.83978000  1
  C  C43  1  0.59044300  0.41516000  0.01568500  1
  C  C44  1  0.32487600  0.48967000  0.89225100  1
  C  C45  1  0.57340900  0.46759600  0.57055500  1
  C  C46  1  0.70240200  0.51966000  0.85072900  1
  C  C47  1  0.62497100  0.51070600  0.18786800  1
  C  C48  1  0.87502900  0.48929400  0.68786800  1
  C  C49  1  0.79759800  0.48034000  0.35072900  1
  C  C50  1  0.92659100  0.53240400  0.07055500  1
  C  C51  1  0.17512400  0.51033000  0.39225100  1
  C  C52  1  0.90955700  0.58484000  0.51568500  1
  C  C53  1  0.49070200  0.63667000  0.33978000  1
  C  C54  1  0.20117200  0.60328700  0.21543400  1
  C  C55  1  0.53880800  0.69204400  0.96662000  1
  C  C56  1  0.67491200  0.71475600  0.63702800  1
  C  C57  1  0.81453300  0.73378700  0.25899600  1
  C  C58  1  0.31453300  0.76621300  0.74100400  1
  C  C59  1  0.17491200  0.78524400  0.36297200  1
  C  C60  1  0.03880800  0.80795600  0.03338000  1
  C  C61  1  0.70117200  0.89671300  0.78456600  1
  C  C62  1  0.99070200  0.86333000  0.66022000  1
  C  C63  1  0.40955700  0.91516000  0.48431500  1
  C  C64  1  0.67512400  0.98967000  0.60774900  1
  C  C65  1  0.42659100  0.96759600  0.92944500  1
  C  C66  1  0.29759800  0.01966000  0.64927100  1
  C  C67  1  0.37502900  0.01070600  0.31213200  1
