# generated using pymatgen
data_CuNiC5
_symmetry_space_group_name_H-M   'P 1'
_cell_length_a   4.68660700
_cell_length_b   6.10365500
_cell_length_c   10.17497600
_cell_angle_alpha   90.00000000
_cell_angle_beta   90.00000000
_cell_angle_gamma   90.00000000
_symmetry_Int_Tables_number   1
_chemical_formula_structural   CuNiC5
_chemical_formula_sum   'Cu4 Ni4 C20'
_cell_volume   291.05958660
_cell_formula_units_Z   4
loop_
 _symmetry_equiv_pos_site_id
 _symmetry_equiv_pos_as_xyz
  1  'x, y, z'
loop_
 _atom_site_type_symbol
 _atom_site_label
 _atom_site_symmetry_multiplicity
 _atom_site_fract_x
 _atom_site_fract_y
 _atom_site_fract_z
 _atom_site_occupancy
  C  C0  1  0.03760000  0.75000000  0.28088600  1
  C  C1  1  0.46240000  0.75000000  0.78088600  1
  C  C2  1  0.53760000  0.25000000  0.21911400  1
  C  C3  1  0.96240000  0.25000000  0.71911400  1
  Ni  Ni4  1  0.00000000  0.00000000  0.00000000  1
  Ni  Ni5  1  0.50000000  0.00000000  0.50000000  1
  Ni  Ni6  1  0.50000000  0.50000000  0.50000000  1
  Ni  Ni7  1  0.00000000  0.50000000  0.00000000  1
  Cu  Cu8  1  0.09076100  0.25000000  0.41274400  1
  Cu  Cu9  1  0.40923900  0.25000000  0.91274400  1
  Cu  Cu10  1  0.59076100  0.75000000  0.08725600  1
  Cu  Cu11  1  0.90923900  0.75000000  0.58725600  1
  C  C12  1  0.26620200  0.25000000  0.56030900  1
  C  C13  1  0.23974800  0.02433400  0.35540800  1
  C  C14  1  0.23974800  0.47566600  0.35540800  1
  C  C15  1  0.24753400  0.75000000  0.08888600  1
  C  C16  1  0.25246600  0.75000000  0.58888600  1
  C  C17  1  0.26025200  0.47566600  0.85540800  1
  C  C18  1  0.26025200  0.02433400  0.85540800  1
  C  C19  1  0.23379800  0.25000000  0.06030900  1
  C  C20  1  0.76620200  0.75000000  0.93969100  1
  C  C21  1  0.73974800  0.52433400  0.14459200  1
  C  C22  1  0.73974800  0.97566600  0.14459200  1
  C  C23  1  0.74753400  0.25000000  0.41111400  1
  C  C24  1  0.75246600  0.25000000  0.91111400  1
  C  C25  1  0.76025200  0.97566600  0.64459200  1
  C  C26  1  0.76025200  0.52433400  0.64459200  1
  C  C27  1  0.73379800  0.75000000  0.43969100  1
