# generated using pymatgen
data_Cu11NiC7
_symmetry_space_group_name_H-M   'P 1'
_cell_length_a   5.93230500
_cell_length_b   7.31190700
_cell_length_c   31.09193600
_cell_angle_alpha   90.00000000
_cell_angle_beta   90.00000000
_cell_angle_gamma   90.00000000
_symmetry_Int_Tables_number   1
_chemical_formula_structural   Cu11NiC7
_chemical_formula_sum   'Cu44 Ni4 C28'
_cell_volume   1348.65819458
_cell_formula_units_Z   4
loop_
 _symmetry_equiv_pos_site_id
 _symmetry_equiv_pos_as_xyz
  1  'x, y, z'
loop_
 _atom_site_type_symbol
 _atom_site_label
 _atom_site_symmetry_multiplicity
 _atom_site_fract_x
 _atom_site_fract_y
 _atom_site_fract_z
 _atom_site_occupancy
  C  C0  1  0.75000000  0.55617300  0.91644700  1
  C  C1  1  0.75000000  0.94382700  0.41644700  1
  C  C2  1  0.25000000  0.44382700  0.08355300  1
  C  C3  1  0.25000000  0.05617300  0.58355300  1
  C  C4  1  0.25000000  0.83533600  0.84325600  1
  C  C5  1  0.25000000  0.66466400  0.34325600  1
  C  C6  1  0.75000000  0.16466400  0.15674400  1
  C  C7  1  0.75000000  0.33533600  0.65674400  1
  C  C8  1  0.75000000  0.19584000  0.80178900  1
  C  C9  1  0.75000000  0.30416000  0.30178900  1
  C  C10  1  0.25000000  0.80416000  0.19821100  1
  C  C11  1  0.25000000  0.69584000  0.69821100  1
  C  C12  1  0.25000000  0.32110800  0.86373100  1
  C  C13  1  0.25000000  0.17889200  0.36373100  1
  C  C14  1  0.75000000  0.67889200  0.13626900  1
  C  C15  1  0.75000000  0.82110800  0.63626900  1
  C  C16  1  0.25000000  0.80380600  0.96341700  1
  C  C17  1  0.25000000  0.69619400  0.46341700  1
  C  C18  1  0.75000000  0.19619400  0.03658300  1
  C  C19  1  0.75000000  0.30380600  0.53658300  1
  C  C20  1  0.75000000  0.03649400  0.90935900  1
  C  C21  1  0.75000000  0.46350600  0.40935900  1
  C  C22  1  0.25000000  0.96350600  0.09064100  1
  C  C23  1  0.25000000  0.53649400  0.59064100  1
  C  C24  1  0.25000000  0.27785300  0.96765900  1
  C  C25  1  0.25000000  0.22214700  0.46765900  1
  C  C26  1  0.75000000  0.72214700  0.03234100  1
  C  C27  1  0.75000000  0.77785300  0.53234100  1
  Ni  Ni28  1  0.75000000  0.73868500  0.75469700  1
  Ni  Ni29  1  0.75000000  0.76131500  0.25469700  1
  Ni  Ni30  1  0.25000000  0.26131500  0.24530300  1
  Ni  Ni31  1  0.25000000  0.23868500  0.74530300  1
  Cu  Cu32  1  0.00344700  0.77777100  0.90716700  1
  Cu  Cu33  1  0.49655300  0.72222900  0.40716700  1
  Cu  Cu34  1  0.50344700  0.22222900  0.09283300  1
  Cu  Cu35  1  0.99655300  0.27777100  0.59283300  1
  Cu  Cu36  1  0.99655300  0.22222900  0.09283300  1
  Cu  Cu37  1  0.50344700  0.27777100  0.59283300  1
  Cu  Cu38  1  0.49655300  0.77777100  0.90716700  1
  Cu  Cu39  1  0.00344700  0.72222900  0.40716700  1
  Cu  Cu40  1  0.00373800  0.08490500  0.85077400  1
  Cu  Cu41  1  0.49626200  0.41509500  0.35077400  1
  Cu  Cu42  1  0.50373800  0.91509500  0.14922600  1
  Cu  Cu43  1  0.99626200  0.58490500  0.64922600  1
  Cu  Cu44  1  0.99626200  0.91509500  0.14922600  1
  Cu  Cu45  1  0.50373800  0.58490500  0.64922600  1
  Cu  Cu46  1  0.49626200  0.08490500  0.85077400  1
  Cu  Cu47  1  0.00373800  0.41509500  0.35077400  1
  Cu  Cu48  1  0.25000000  0.14973300  0.93770900  1
  Cu  Cu49  1  0.25000000  0.35026700  0.43770900  1
  Cu  Cu50  1  0.75000000  0.85026700  0.06229100  1
  Cu  Cu51  1  0.75000000  0.64973300  0.56229100  1
  Cu  Cu52  1  0.25000000  0.22965800  0.00768600  1
  Cu  Cu53  1  0.25000000  0.27034200  0.50768600  1
  Cu  Cu54  1  0.75000000  0.77034200  0.99231400  1
  Cu  Cu55  1  0.75000000  0.72965800  0.49231400  1
  Cu  Cu56  1  0.25000000  0.44690100  0.95524100  1
  Cu  Cu57  1  0.25000000  0.05309900  0.45524100  1
  Cu  Cu58  1  0.75000000  0.55309900  0.04475900  1
  Cu  Cu59  1  0.75000000  0.94690100  0.54475900  1
  Cu  Cu60  1  0.75000000  0.43851200  0.85157700  1
  Cu  Cu61  1  0.75000000  0.06148800  0.35157700  1
  Cu  Cu62  1  0.25000000  0.56148800  0.14842300  1
  Cu  Cu63  1  0.25000000  0.93851200  0.64842300  1
  Cu  Cu64  1  0.75000000  0.79332300  0.79345100  1
  Cu  Cu65  1  0.75000000  0.70667700  0.29345100  1
  Cu  Cu66  1  0.25000000  0.20667700  0.20654900  1
  Cu  Cu67  1  0.25000000  0.29332300  0.70654900  1
  Cu  Cu68  1  0.75000000  0.85908400  0.72448100  1
  Cu  Cu69  1  0.75000000  0.64091600  0.22448100  1
  Cu  Cu70  1  0.25000000  0.14091600  0.27551900  1
  Cu  Cu71  1  0.25000000  0.35908400  0.77551900  1
  Cu  Cu72  1  0.75000000  0.57060400  0.74565000  1
  Cu  Cu73  1  0.75000000  0.92939600  0.24565000  1
  Cu  Cu74  1  0.25000000  0.42939600  0.25435000  1
  Cu  Cu75  1  0.25000000  0.07060400  0.75435000  1
