# generated using pymatgen
data_CuNi2C5
_symmetry_space_group_name_H-M   'P 1'
_cell_length_a   6.65593029
_cell_length_b   6.65593029
_cell_length_c   9.81744000
_cell_angle_alpha   90.00000000
_cell_angle_beta   90.00000000
_cell_angle_gamma   117.03640303
_symmetry_Int_Tables_number   1
_chemical_formula_structural   CuNi2C5
_chemical_formula_sum   'Cu4 Ni8 C20'
_cell_volume   387.39674366
_cell_formula_units_Z   4
loop_
 _symmetry_equiv_pos_site_id
 _symmetry_equiv_pos_as_xyz
  1  'x, y, z'
loop_
 _atom_site_type_symbol
 _atom_site_label
 _atom_site_symmetry_multiplicity
 _atom_site_fract_x
 _atom_site_fract_y
 _atom_site_fract_z
 _atom_site_occupancy
  C  C0  1  0.59601500  0.92913900  0.57688300  1
  C  C1  1  0.07086100  0.40398500  0.57688300  1
  C  C2  1  0.40398500  0.07086100  0.07688400  1
  C  C3  1  0.92913900  0.59601500  0.07688400  1
  Ni  Ni4  1  0.65219500  0.82532400  0.04700700  1
  Ni  Ni5  1  0.17467600  0.34780500  0.04700700  1
  Ni  Ni6  1  0.34780500  0.17467600  0.54700700  1
  Ni  Ni7  1  0.82532400  0.65219500  0.54700700  1
  Ni  Ni8  1  0.68402600  0.31597400  0.77281900  1
  Ni  Ni9  1  0.31597400  0.68402600  0.27281900  1
  Ni  Ni10  1  0.81355600  0.18644400  0.82019200  1
  Ni  Ni11  1  0.18644400  0.81355600  0.32019200  1
  Cu  Cu12  1  0.43593100  0.56406900  0.88113900  1
  Cu  Cu13  1  0.56406900  0.43593100  0.38113900  1
  Cu  Cu14  1  0.09588900  0.90411100  0.74941100  1
  Cu  Cu15  1  0.90411100  0.09588900  0.24941100  1
  C  C16  1  0.23188100  0.76811900  0.68345400  1
  C  C17  1  0.76811900  0.23188100  0.18345400  1
  C  C18  1  0.09875500  0.90124500  0.91836700  1
  C  C19  1  0.90124500  0.09875500  0.41836700  1
  C  C20  1  0.22329500  0.17331600  0.69290000  1
  C  C21  1  0.82668400  0.77670500  0.69290000  1
  C  C22  1  0.77670500  0.82668400  0.19290000  1
  C  C23  1  0.17331600  0.22329500  0.19290000  1
  C  C24  1  0.56316800  0.83540300  0.96476000  1
  C  C25  1  0.16459700  0.43683200  0.96476000  1
  C  C26  1  0.43683200  0.16459700  0.46476000  1
  C  C27  1  0.83540300  0.56316800  0.46476000  1
  C  C28  1  0.56789100  0.43210900  0.95741100  1
  C  C29  1  0.43210900  0.56789100  0.45741100  1
  C  C30  1  0.76536900  0.23463100  0.73803600  1
  C  C31  1  0.23463100  0.76536900  0.23803600  1
