# generated using pymatgen
data_Cu2Ni2C15
_symmetry_space_group_name_H-M   'P 1'
_cell_length_a   5.33934769
_cell_length_b   5.33934769
_cell_length_c   13.26602900
_cell_angle_alpha   90.00000000
_cell_angle_beta   90.00000000
_cell_angle_gamma   112.93084297
_symmetry_Int_Tables_number   1
_chemical_formula_structural   Cu2Ni2C15
_chemical_formula_sum   'Cu4 Ni4 C30'
_cell_volume   348.30969860
_cell_formula_units_Z   2
loop_
 _symmetry_equiv_pos_site_id
 _symmetry_equiv_pos_as_xyz
  1  'x, y, z'
loop_
 _atom_site_type_symbol
 _atom_site_label
 _atom_site_symmetry_multiplicity
 _atom_site_fract_x
 _atom_site_fract_y
 _atom_site_fract_z
 _atom_site_occupancy
  C  C0  1  0.66417700  0.33582300  0.25000000  1
  C  C1  1  0.33582300  0.66417700  0.75000000  1
  Ni  Ni2  1  0.50000000  0.00000000  0.50000000  1
  Ni  Ni3  1  0.00000000  0.50000000  0.50000000  1
  Ni  Ni4  1  0.50000000  0.00000000  0.00000000  1
  Ni  Ni5  1  0.00000000  0.50000000  0.00000000  1
  Cu  Cu6  1  0.01803700  0.98196300  0.36739100  1
  Cu  Cu7  1  0.98196300  0.01803700  0.63260900  1
  Cu  Cu8  1  0.01803700  0.98196300  0.13260900  1
  Cu  Cu9  1  0.98196300  0.01803700  0.86739100  1
  C  C10  1  0.33742600  0.66257400  0.31208500  1
  C  C11  1  0.66257400  0.33742600  0.68791500  1
  C  C12  1  0.33742600  0.66257400  0.18791500  1
  C  C13  1  0.66257400  0.33742600  0.81208500  1
  C  C14  1  0.46503100  0.53496900  0.43658700  1
  C  C15  1  0.53496900  0.46503100  0.56341300  1
  C  C16  1  0.46503100  0.53496900  0.06341300  1
  C  C17  1  0.53496900  0.46503100  0.93658700  1
  C  C18  1  0.95108700  0.04891300  0.25000000  1
  C  C19  1  0.04891300  0.95108700  0.75000000  1
  C  C20  1  0.34758300  0.11063600  0.38477200  1
  C  C21  1  0.11063600  0.34758300  0.61522800  1
  C  C22  1  0.34758300  0.11063600  0.11522800  1
  C  C23  1  0.11063600  0.34758300  0.88477200  1
  C  C24  1  0.65241700  0.88936400  0.61522800  1
  C  C25  1  0.88936400  0.65241700  0.38477200  1
  C  C26  1  0.65241700  0.88936400  0.88477200  1
  C  C27  1  0.88936400  0.65241700  0.11522800  1
  C  C28  1  0.86051400  0.13948600  0.43476000  1
  C  C29  1  0.13948600  0.86051400  0.56524000  1
  C  C30  1  0.86051400  0.13948600  0.06524000  1
  C  C31  1  0.13948600  0.86051400  0.93476000  1
  C  C32  1  0.35657600  0.64342400  0.44793100  1
  C  C33  1  0.64342400  0.35657600  0.55206900  1
  C  C34  1  0.35657600  0.64342400  0.05206900  1
  C  C35  1  0.64342400  0.35657600  0.94793100  1
  C  C36  1  0.39802100  0.60197900  0.25000000  1
  C  C37  1  0.60197900  0.39802100  0.75000000  1
