# generated using pymatgen
data_Cu5NiC9
_symmetry_space_group_name_H-M   'P 1'
_cell_length_a   5.62377387
_cell_length_b   5.62377387
_cell_length_c   6.85297400
_cell_angle_alpha   90.00000000
_cell_angle_beta   90.00000000
_cell_angle_gamma   119.99999848
_symmetry_Int_Tables_number   1
_chemical_formula_structural   Cu5NiC9
_chemical_formula_sum   'Cu5 Ni1 C9'
_cell_volume   187.70049661
_cell_formula_units_Z   1
loop_
 _symmetry_equiv_pos_site_id
 _symmetry_equiv_pos_as_xyz
  1  'x, y, z'
loop_
 _atom_site_type_symbol
 _atom_site_label
 _atom_site_symmetry_multiplicity
 _atom_site_fract_x
 _atom_site_fract_y
 _atom_site_fract_z
 _atom_site_occupancy
  Ni  Ni0  1  0.00000000  0.00000000  0.50000000  1
  Cu  Cu1  1  0.00000000  0.00000000  0.00000000  1
  Cu  Cu2  1  0.66666700  0.33333300  0.33892000  1
  Cu  Cu3  1  0.33333300  0.66666700  0.18149800  1
  Cu  Cu4  1  0.33333300  0.66666700  0.66108000  1
  Cu  Cu5  1  0.66666700  0.33333300  0.81850200  1
  C  C6  1  0.50000000  0.00000000  0.00000000  1
  C  C7  1  0.50000000  0.50000000  0.00000000  1
  C  C8  1  0.67016800  0.83508400  0.33239100  1
  C  C9  1  0.16491600  0.32983200  0.33239100  1
  C  C10  1  0.16491600  0.83508400  0.33239100  1
  C  C11  1  0.32983200  0.16491600  0.66760900  1
  C  C12  1  0.83508400  0.67016800  0.66760900  1
  C  C13  1  0.83508400  0.16491600  0.66760900  1
  C  C14  1  0.00000000  0.50000000  0.00000000  1
