# generated using pymatgen
data_Cu2Ni5C17
_symmetry_space_group_name_H-M   'P 1'
_cell_length_a   5.24712623
_cell_length_b   5.24712623
_cell_length_c   9.95928939
_cell_angle_alpha   85.53190191
_cell_angle_beta   85.53190191
_cell_angle_gamma   120.11700240
_symmetry_Int_Tables_number   1
_chemical_formula_structural   Cu2Ni5C17
_chemical_formula_sum   'Cu2 Ni5 C17'
_cell_volume   234.27884038
_cell_formula_units_Z   1
loop_
 _symmetry_equiv_pos_site_id
 _symmetry_equiv_pos_as_xyz
  1  'x, y, z'
loop_
 _atom_site_type_symbol
 _atom_site_label
 _atom_site_symmetry_multiplicity
 _atom_site_fract_x
 _atom_site_fract_y
 _atom_site_fract_z
 _atom_site_occupancy
  C  C0  1  0.83444400  0.66175300  0.25431100  1
  C  C1  1  0.67607700  0.84678300  0.74587500  1
  C  C2  1  0.33824700  0.16555600  0.74568900  1
  C  C3  1  0.15321700  0.32392300  0.25412500  1
  C  C4  1  0.08538700  0.91461300  0.50000000  1
  Ni  Ni5  1  0.92105400  0.07894600  0.00000000  1
  Ni  Ni6  1  0.00126900  0.50605800  0.74709000  1
  Ni  Ni7  1  0.49394200  0.99873100  0.25291000  1
  Ni  Ni8  1  0.57608700  0.42391300  0.00000000  1
  Ni  Ni9  1  0.42420900  0.57579100  0.50000000  1
  Cu  Cu10  1  0.75167400  0.24832600  0.50000000  1
  Cu  Cu11  1  0.24860900  0.75139100  0.00000000  1
  C  C12  1  0.03411500  0.23163000  0.62535300  1
  C  C13  1  0.76837000  0.96588500  0.37464700  1
  C  C14  1  0.89338600  0.39698700  0.11684500  1
  C  C15  1  0.60301300  0.10661400  0.88315500  1
  C  C16  1  0.72480300  0.52785600  0.62280500  1
  C  C17  1  0.47214400  0.27519700  0.37719500  1
  C  C18  1  0.52899700  0.72248700  0.12874600  1
  C  C19  1  0.27751300  0.47100300  0.87125400  1
  C  C20  1  0.42099300  0.91281200  0.61111200  1
  C  C21  1  0.08718800  0.57900700  0.38888800  1
  C  C22  1  0.21755700  0.03229300  0.13008200  1
  C  C23  1  0.96770700  0.78244300  0.86991800  1
