# generated using pymatgen
data_Cu8Ni4C5
_symmetry_space_group_name_H-M   'P 1'
_cell_length_a   4.67640571
_cell_length_b   4.67640571
_cell_length_c   8.93748900
_cell_angle_alpha   90.00000000
_cell_angle_beta   90.00000000
_cell_angle_gamma   93.68723299
_symmetry_Int_Tables_number   1
_chemical_formula_structural   Cu8Ni4C5
_chemical_formula_sum   'Cu8 Ni4 C5'
_cell_volume   195.04730422
_cell_formula_units_Z   1
loop_
 _symmetry_equiv_pos_site_id
 _symmetry_equiv_pos_as_xyz
  1  'x, y, z'
loop_
 _atom_site_type_symbol
 _atom_site_label
 _atom_site_symmetry_multiplicity
 _atom_site_fract_x
 _atom_site_fract_y
 _atom_site_fract_z
 _atom_site_occupancy
  C  C0  1  0.00000000  0.00000000  0.68072000  1
  C  C1  1  0.00000000  0.00000000  0.31928000  1
  C  C2  1  0.50000000  0.50000000  0.50000000  1
  C  C3  1  0.50000000  0.50000000  0.17297500  1
  C  C4  1  0.50000000  0.50000000  0.82702500  1
  Ni  Ni5  1  0.30312400  0.30312400  0.34560900  1
  Ni  Ni6  1  0.30312400  0.30312400  0.65439100  1
  Ni  Ni7  1  0.69687600  0.69687600  0.34560900  1
  Ni  Ni8  1  0.69687600  0.69687600  0.65439100  1
  Cu  Cu9  1  0.20797100  0.79202900  0.50000000  1
  Cu  Cu10  1  0.20873500  0.79126500  0.82527300  1
  Cu  Cu11  1  0.20873500  0.79126500  0.17472700  1
  Cu  Cu12  1  0.30620000  0.30620000  0.00000000  1
  Cu  Cu13  1  0.69380000  0.69380000  0.00000000  1
  Cu  Cu14  1  0.79126500  0.20873500  0.17472700  1
  Cu  Cu15  1  0.79126500  0.20873500  0.82527300  1
  Cu  Cu16  1  0.79202900  0.20797100  0.50000000  1
