# generated using pymatgen
data_Cu2NiC6
_symmetry_space_group_name_H-M   'P 1'
_cell_length_a   5.41486900
_cell_length_b   5.45195750
_cell_length_c   7.62950016
_cell_angle_alpha   80.70153115
_cell_angle_beta   70.34496857
_cell_angle_gamma   65.37911459
_symmetry_Int_Tables_number   1
_chemical_formula_structural   Cu2NiC6
_chemical_formula_sum   'Cu4 Ni2 C12'
_cell_volume   192.76712453
_cell_formula_units_Z   2
loop_
 _symmetry_equiv_pos_site_id
 _symmetry_equiv_pos_as_xyz
  1  'x, y, z'
loop_
 _atom_site_type_symbol
 _atom_site_label
 _atom_site_symmetry_multiplicity
 _atom_site_fract_x
 _atom_site_fract_y
 _atom_site_fract_z
 _atom_site_occupancy
  C  C0  1  0.00466900  0.00712300  0.99296600  1
  C  C1  1  0.68534900  0.49481100  0.60613900  1
  Ni  Ni2  1  0.75398000  0.03869100  0.41011800  1
  Ni  Ni3  1  0.08788500  0.51277600  0.78671400  1
  Cu  Cu4  1  0.94885600  0.52376100  0.20846900  1
  Cu  Cu5  1  0.50732200  0.49158100  0.00225800  1
  Cu  Cu6  1  0.19707300  0.99406300  0.60471800  1
  Cu  Cu7  1  0.39863400  0.97246900  0.18584100  1
  C  C8  1  0.23929100  0.28358800  0.00445300  1
  C  C9  1  0.43185400  0.23351900  0.59710100  1
  C  C10  1  0.00846800  0.22092400  0.40075900  1
  C  C11  1  0.90438700  0.27594200  0.78498300  1
  C  C12  1  0.65167700  0.21596000  0.20012900  1
  C  C13  1  0.32047200  0.71180200  0.79374800  1
  C  C14  1  0.77016800  0.70050600  0.00597800  1
  C  C15  1  0.13278800  0.76702100  0.20327400  1
  C  C16  1  0.96847600  0.77533600  0.60487000  1
  C  C17  1  0.59044200  0.77540000  0.40775600  1
