# generated using pymatgen
data_Cu(NiC2)3
_symmetry_space_group_name_H-M   'P 1'
_cell_length_a   7.26809362
_cell_length_b   7.26809362
_cell_length_c   5.78382300
_cell_angle_alpha   90.00000000
_cell_angle_beta   90.00000000
_cell_angle_gamma   102.29045361
_symmetry_Int_Tables_number   1
_chemical_formula_structural   Cu(NiC2)3
_chemical_formula_sum   'Cu2 Ni6 C12'
_cell_volume   298.52905936
_cell_formula_units_Z   2
loop_
 _symmetry_equiv_pos_site_id
 _symmetry_equiv_pos_as_xyz
  1  'x, y, z'
loop_
 _atom_site_type_symbol
 _atom_site_label
 _atom_site_symmetry_multiplicity
 _atom_site_fract_x
 _atom_site_fract_y
 _atom_site_fract_z
 _atom_site_occupancy
  Ni  Ni0  1  0.08842400  0.31323400  0.46455800  1
  Ni  Ni1  1  0.31323400  0.08842400  0.96455800  1
  Ni  Ni2  1  0.60208300  0.39791700  0.41074200  1
  Ni  Ni3  1  0.39791700  0.60208300  0.91074100  1
  Ni  Ni4  1  0.68676600  0.91157600  0.46455800  1
  Ni  Ni5  1  0.91157600  0.68676600  0.96455800  1
  Cu  Cu6  1  0.83653500  0.16346500  0.97811100  1
  Cu  Cu7  1  0.16346500  0.83653500  0.47811100  1
  C  C8  1  0.32018500  0.35567600  0.18249500  1
  C  C9  1  0.35567600  0.32018500  0.68249500  1
  C  C10  1  0.57915100  0.09834400  0.17705000  1
  C  C11  1  0.09834400  0.57915100  0.67705000  1
  C  C12  1  0.98355100  0.01644900  0.25214400  1
  C  C13  1  0.77754200  0.22245800  0.61809600  1
  C  C14  1  0.22245800  0.77754200  0.11809600  1
  C  C15  1  0.01644900  0.98355100  0.75214400  1
  C  C16  1  0.90165600  0.42084900  0.17705000  1
  C  C17  1  0.42084900  0.90165600  0.67705000  1
  C  C18  1  0.64432400  0.67981500  0.18249500  1
  C  C19  1  0.67981500  0.64432400  0.68249500  1
