# generated using pymatgen
data_Cu7Ni5C6
_symmetry_space_group_name_H-M   'P 1'
_cell_length_a   5.70037100
_cell_length_b   4.72270300
_cell_length_c   15.63992112
_cell_angle_alpha   89.79193861
_cell_angle_beta   90.00000000
_cell_angle_gamma   90.00000000
_symmetry_Int_Tables_number   1
_chemical_formula_structural   Cu7Ni5C6
_chemical_formula_sum   'Cu14 Ni10 C12'
_cell_volume   421.04203059
_cell_formula_units_Z   2
loop_
 _symmetry_equiv_pos_site_id
 _symmetry_equiv_pos_as_xyz
  1  'x, y, z'
loop_
 _atom_site_type_symbol
 _atom_site_label
 _atom_site_symmetry_multiplicity
 _atom_site_fract_x
 _atom_site_fract_y
 _atom_site_fract_z
 _atom_site_occupancy
  C  C0  1  0.16972900  0.05105400  0.41589700  1
  C  C1  1  0.85203100  0.97197600  0.24914200  1
  C  C2  1  0.16004400  0.04358800  0.07832700  1
  C  C3  1  0.14796900  0.97197600  0.74914200  1
  C  C4  1  0.83995600  0.04358800  0.57832700  1
  C  C5  1  0.83027100  0.05105400  0.91589700  1
  C  C6  1  0.36421400  0.51482800  0.58822400  1
  C  C7  1  0.34749200  0.47603500  0.92248600  1
  C  C8  1  0.34947500  0.47224700  0.24608900  1
  C  C9  1  0.63578600  0.51482800  0.08822400  1
  C  C10  1  0.65250800  0.47603500  0.42248600  1
  C  C11  1  0.65052500  0.47224700  0.74608900  1
  Ni  Ni12  1  0.11041900  0.20697600  0.29809000  1
  Ni  Ni13  1  0.11458700  0.23910600  0.97570400  1
  Ni  Ni14  1  0.88541300  0.23910600  0.47570400  1
  Ni  Ni15  1  0.88958100  0.20697600  0.79809000  1
  Ni  Ni16  1  0.38308900  0.28960400  0.13830200  1
  Ni  Ni17  1  0.39942500  0.30417500  0.48096100  1
  Ni  Ni18  1  0.61691100  0.28960400  0.63830200  1
  Ni  Ni19  1  0.60057500  0.30417500  0.98096100  1
  Ni  Ni20  1  0.61667300  0.70729700  0.19853100  1
  Ni  Ni21  1  0.38332700  0.70729700  0.69853100  1
  Cu  Cu22  1  0.11648500  0.23336000  0.64075000  1
  Cu  Cu23  1  0.88351500  0.23336000  0.14075000  1
  Cu  Cu24  1  0.61322800  0.21820000  0.31151800  1
  Cu  Cu25  1  0.38677200  0.21820000  0.81151800  1
  Cu  Cu26  1  0.37839600  0.77067700  0.02304100  1
  Cu  Cu27  1  0.38647600  0.70037500  0.35752800  1
  Cu  Cu28  1  0.62160400  0.77067700  0.52304100  1
  Cu  Cu29  1  0.61352400  0.70037500  0.85752800  1
  Cu  Cu30  1  0.11669200  0.78037600  0.18086700  1
  Cu  Cu31  1  0.13244100  0.78671500  0.53018800  1
  Cu  Cu32  1  0.88349600  0.73340900  0.36435500  1
  Cu  Cu33  1  0.86755900  0.78671500  0.03018800  1
  Cu  Cu34  1  0.11650400  0.73340900  0.86435500  1
  Cu  Cu35  1  0.88330800  0.78037600  0.68086700  1
