# generated using pymatgen
data_Cu3NiC7
_symmetry_space_group_name_H-M   'P 1'
_cell_length_a   10.20105000
_cell_length_b   9.83660600
_cell_length_c   12.04161773
_cell_angle_alpha   72.63495528
_cell_angle_beta   90.00000000
_cell_angle_gamma   90.00000000
_symmetry_Int_Tables_number   1
_chemical_formula_structural   Cu3NiC7
_chemical_formula_sum   'Cu24 Ni8 C56'
_cell_volume   1153.22938336
_cell_formula_units_Z   8
loop_
 _symmetry_equiv_pos_site_id
 _symmetry_equiv_pos_as_xyz
  1  'x, y, z'
loop_
 _atom_site_type_symbol
 _atom_site_label
 _atom_site_symmetry_multiplicity
 _atom_site_fract_x
 _atom_site_fract_y
 _atom_site_fract_z
 _atom_site_occupancy
  C  C0  1  0.68653600  0.85905100  0.51140900  1
  C  C1  1  0.61058800  0.64992400  0.85659600  1
  C  C2  1  0.08210600  0.75143100  0.60154400  1
  C  C3  1  0.81346400  0.85905100  0.01140900  1
  C  C4  1  0.94437500  0.48516500  0.86639300  1
  C  C5  1  0.88941200  0.64992400  0.35659600  1
  C  C6  1  0.41789400  0.75143100  0.10154400  1
  C  C7  1  0.44437500  0.51483500  0.63360700  1
  C  C8  1  0.55562500  0.48516500  0.36639300  1
  C  C9  1  0.58210700  0.24856900  0.89845600  1
  C  C10  1  0.11058800  0.35007600  0.64340400  1
  C  C11  1  0.05562500  0.51483500  0.13360700  1
  C  C12  1  0.18653600  0.14094900  0.98859100  1
  C  C13  1  0.91789400  0.24856900  0.39845600  1
  C  C14  1  0.38941200  0.35007600  0.14340400  1
  C  C15  1  0.31346400  0.14094900  0.48859100  1
  Ni  Ni16  1  0.18969300  0.81141700  0.86450200  1
  Ni  Ni17  1  0.31030700  0.81141700  0.36450200  1
  Ni  Ni18  1  0.27268000  0.51402700  0.87325800  1
  Ni  Ni19  1  0.77268000  0.48597300  0.62674200  1
  Ni  Ni20  1  0.22732000  0.51402700  0.37325800  1
  Ni  Ni21  1  0.72732000  0.48597300  0.12674200  1
  Ni  Ni22  1  0.68969300  0.18858300  0.63549800  1
  Ni  Ni23  1  0.81030700  0.18858300  0.13549800  1
  Cu  Cu24  1  0.61534700  0.98979300  0.84328500  1
  Cu  Cu25  1  0.46944000  0.94284900  0.87877500  1
  Cu  Cu26  1  0.80949400  0.92430700  0.73620100  1
  Cu  Cu27  1  0.88465300  0.98979300  0.34328500  1
  Cu  Cu28  1  0.91923800  0.80840800  0.79360200  1
  Cu  Cu29  1  0.03056000  0.94284900  0.37877500  1
  Cu  Cu30  1  0.37593900  0.84483600  0.69269700  1
  Cu  Cu31  1  0.41325500  0.83801000  0.57177100  1
  Cu  Cu32  1  0.69050600  0.92430700  0.23620100  1
  Cu  Cu33  1  0.58076200  0.80840800  0.29360200  1
  Cu  Cu34  1  0.12406100  0.84483600  0.19269700  1
  Cu  Cu35  1  0.08674500  0.83801000  0.07177100  1
  Cu  Cu36  1  0.91325500  0.16199000  0.92822900  1
  Cu  Cu37  1  0.87593900  0.15516400  0.80730300  1
  Cu  Cu38  1  0.41923800  0.19159200  0.70639800  1
  Cu  Cu39  1  0.30949400  0.07569300  0.76379900  1
  Cu  Cu40  1  0.58674500  0.16199000  0.42822900  1
  Cu  Cu41  1  0.62406100  0.15516400  0.30730300  1
  Cu  Cu42  1  0.96944000  0.05715100  0.62122500  1
  Cu  Cu43  1  0.08076200  0.19159200  0.20639800  1
  Cu  Cu44  1  0.11534700  0.01020700  0.65671500  1
  Cu  Cu45  1  0.19050600  0.07569300  0.26379900  1
  Cu  Cu46  1  0.53056000  0.05715100  0.12122500  1
  Cu  Cu47  1  0.38465300  0.01020700  0.15671500  1
  C  C48  1  0.56000000  0.91930500  0.90323100  1
  C  C49  1  0.22691000  0.88960000  0.95236400  1
  C  C50  1  0.22510900  0.89946200  0.73790500  1
  C  C51  1  0.83749900  0.82600900  0.74417400  1
  C  C52  1  0.04814300  0.75574900  0.87720400  1
  C  C53  1  0.45386800  0.82647600  0.64870600  1
  C  C54  1  0.94000000  0.91930500  0.40323100  1
  C  C55  1  0.27309000  0.88960000  0.45236400  1
  C  C56  1  0.28923600  0.67371900  0.89636700  1
  C  C57  1  0.27489100  0.89946200  0.23790500  1
  C  C58  1  0.66250100  0.82600900  0.24417400  1
  C  C59  1  0.45185700  0.75574900  0.37720400  1
  C  C60  1  0.04613200  0.82647600  0.14870600  1
  C  C61  1  0.20805200  0.53778500  0.75438400  1
  C  C62  1  0.21076400  0.67371900  0.39636700  1
  C  C63  1  0.18935100  0.42447300  0.97487200  1
  C  C64  1  0.41480600  0.46208900  0.87928100  1
  C  C65  1  0.91480600  0.53791100  0.62071900  1
  C  C66  1  0.68935100  0.57552700  0.52512800  1
  C  C67  1  0.70805200  0.46221500  0.74561600  1
  C  C68  1  0.29194800  0.53778500  0.25438400  1
  C  C69  1  0.31064900  0.42447300  0.47487200  1
  C  C70  1  0.08519400  0.46208900  0.37928100  1
  C  C71  1  0.58519400  0.53791100  0.12071900  1
  C  C72  1  0.81064900  0.57552700  0.02512800  1
  C  C73  1  0.78923600  0.32628100  0.60363300  1
  C  C74  1  0.79194800  0.46221500  0.24561600  1
  C  C75  1  0.95386800  0.17352400  0.85129400  1
  C  C76  1  0.54814300  0.24425100  0.62279600  1
  C  C77  1  0.33749900  0.17399100  0.75582600  1
  C  C78  1  0.72510900  0.10053800  0.76209500  1
  C  C79  1  0.71076400  0.32628100  0.10363300  1
  C  C80  1  0.72691000  0.11040000  0.54763600  1
  C  C81  1  0.06000000  0.08069500  0.59676900  1
  C  C82  1  0.54613200  0.17352400  0.35129400  1
  C  C83  1  0.95185700  0.24425100  0.12279600  1
  C  C84  1  0.16250100  0.17399100  0.25582600  1
  C  C85  1  0.77489100  0.10053800  0.26209500  1
  C  C86  1  0.77309000  0.11040000  0.04763600  1
  C  C87  1  0.44000000  0.08069500  0.09676900  1
