# generated using pymatgen
data_Cu16Ni4C9
_symmetry_space_group_name_H-M   'P 1'
_cell_length_a   9.87608405
_cell_length_b   9.87608405
_cell_length_c   9.87608405
_cell_angle_alpha   60.00000000
_cell_angle_beta   60.00000000
_cell_angle_gamma   60.00000000
_symmetry_Int_Tables_number   1
_chemical_formula_structural   Cu16Ni4C9
_chemical_formula_sum   'Cu32 Ni8 C18'
_cell_volume   681.14462439
_cell_formula_units_Z   2
loop_
 _symmetry_equiv_pos_site_id
 _symmetry_equiv_pos_as_xyz
  1  'x, y, z'
loop_
 _atom_site_type_symbol
 _atom_site_label
 _atom_site_symmetry_multiplicity
 _atom_site_fract_x
 _atom_site_fract_y
 _atom_site_fract_z
 _atom_site_occupancy
  C  C0  1  0.03686500  0.46313500  0.46313500  1
  C  C1  1  0.03686500  0.03686500  0.46313500  1
  C  C2  1  0.03686500  0.46313500  0.03686500  1
  C  C3  1  0.46313500  0.03686500  0.46313500  1
  C  C4  1  0.78686500  0.21313500  0.21313500  1
  C  C5  1  0.78686500  0.78686500  0.21313500  1
  C  C6  1  0.46313500  0.46313500  0.03686500  1
  C  C7  1  0.46313500  0.03686500  0.03686500  1
  C  C8  1  0.21313500  0.78686500  0.21313500  1
  C  C9  1  0.78686500  0.21313500  0.78686500  1
  C  C10  1  0.21313500  0.21313500  0.78686500  1
  C  C11  1  0.21313500  0.78686500  0.78686500  1
  C  C12  1  0.00000000  0.00000000  0.00000000  1
  C  C13  1  0.25000000  0.25000000  0.25000000  1
  C  C14  1  0.12500000  0.62500000  0.62500000  1
  C  C15  1  0.62500000  0.12500000  0.62500000  1
  C  C16  1  0.62500000  0.62500000  0.62500000  1
  C  C17  1  0.62500000  0.62500000  0.12500000  1
  Ni  Ni18  1  0.84072000  0.84072000  0.47784000  1
  Ni  Ni19  1  0.84072000  0.84072000  0.84072000  1
  Ni  Ni20  1  0.84072000  0.47784000  0.84072000  1
  Ni  Ni21  1  0.47784000  0.84072000  0.84072000  1
  Ni  Ni22  1  0.77216000  0.40928000  0.40928000  1
  Ni  Ni23  1  0.40928000  0.77216000  0.40928000  1
  Ni  Ni24  1  0.40928000  0.40928000  0.40928000  1
  Ni  Ni25  1  0.40928000  0.40928000  0.77216000  1
  Cu  Cu26  1  0.06763400  0.06763400  0.79709700  1
  Cu  Cu27  1  0.06763400  0.06763400  0.06763400  1
  Cu  Cu28  1  0.06763400  0.79709700  0.06763400  1
  Cu  Cu29  1  0.79709700  0.06763400  0.06763400  1
  Cu  Cu30  1  0.98383400  0.72396000  0.47498200  1
  Cu  Cu31  1  0.81722300  0.98383400  0.47498200  1
  Cu  Cu32  1  0.98383400  0.81722300  0.72396000  1
  Cu  Cu33  1  0.72396000  0.81722300  0.47498200  1
  Cu  Cu34  1  0.98383400  0.47498200  0.81722300  1
  Cu  Cu35  1  0.81722300  0.47498200  0.72396000  1
  Cu  Cu36  1  0.72396000  0.98383400  0.81722300  1
  Cu  Cu37  1  0.81722300  0.72396000  0.98383400  1
  Cu  Cu38  1  0.47498200  0.98383400  0.72396000  1
  Cu  Cu39  1  0.72396000  0.47498200  0.98383400  1
  Cu  Cu40  1  0.47498200  0.72396000  0.81722300  1
  Cu  Cu41  1  0.77501800  0.43277700  0.26616600  1
  Cu  Cu42  1  0.47498200  0.81722300  0.98383400  1
  Cu  Cu43  1  0.77501800  0.52604000  0.43277700  1
  Cu  Cu44  1  0.52604000  0.77501800  0.26616600  1
  Cu  Cu45  1  0.77501800  0.26616600  0.52604000  1
  Cu  Cu46  1  0.43277700  0.52604000  0.26616600  1
  Cu  Cu47  1  0.52604000  0.26616600  0.43277700  1
  Cu  Cu48  1  0.43277700  0.77501800  0.52604000  1
  Cu  Cu49  1  0.26616600  0.77501800  0.43277700  1
  Cu  Cu50  1  0.52604000  0.43277700  0.77501800  1
  Cu  Cu51  1  0.26616600  0.43277700  0.52604000  1
  Cu  Cu52  1  0.43277700  0.26616600  0.77501800  1
  Cu  Cu53  1  0.26616600  0.52604000  0.77501800  1
  Cu  Cu54  1  0.45290300  0.18236600  0.18236600  1
  Cu  Cu55  1  0.18236600  0.45290300  0.18236600  1
  Cu  Cu56  1  0.18236600  0.18236600  0.18236600  1
  Cu  Cu57  1  0.18236600  0.18236600  0.45290300  1
