# generated using pymatgen
data_Cu4Ni5C3
_symmetry_space_group_name_H-M   'P 1'
_cell_length_a   9.41144894
_cell_length_b   9.81093037
_cell_length_c   7.33124247
_cell_angle_alpha   82.37255961
_cell_angle_beta   98.58929065
_cell_angle_gamma   140.37478556
_symmetry_Int_Tables_number   1
_chemical_formula_structural   Cu4Ni5C3
_chemical_formula_sum   'Cu4 Ni5 C3'
_cell_volume   426.71124995
_cell_formula_units_Z   1
loop_
 _symmetry_equiv_pos_site_id
 _symmetry_equiv_pos_as_xyz
  1  'x, y, z'
loop_
 _atom_site_type_symbol
 _atom_site_label
 _atom_site_symmetry_multiplicity
 _atom_site_fract_x
 _atom_site_fract_y
 _atom_site_fract_z
 _atom_site_occupancy
  C  C0  1  0.72408600  0.31144700  0.76208100  1
  C  C1  1  0.34490100  0.70123900  0.24139700  1
  C  C2  1  0.98860500  0.06219700  0.97628300  1
  Ni  Ni3  1  0.69194500  0.39631600  0.23731300  1
  Ni  Ni4  1  0.30032100  0.73886700  0.70858300  1
  Ni  Ni5  1  0.19438100  0.85923700  0.89851400  1
  Ni  Ni6  1  0.89003800  0.16307800  0.13021200  1
  Ni  Ni7  1  0.59586000  0.54305200  0.44206200  1
  Cu  Cu8  1  0.14094300  0.24075500  0.81453900  1
  Cu  Cu9  1  0.75799400  0.82971500  0.89350200  1
  Cu  Cu10  1  0.74468000  0.60331200  0.27113100  1
  Cu  Cu11  1  0.12624400  0.05078400  0.12438300  1
