# generated using pymatgen
data_Cu12Ni3C4
_symmetry_space_group_name_H-M   'P 1'
_cell_length_a   7.91179390
_cell_length_b   7.91179390
_cell_length_c   9.24374038
_cell_angle_alpha   64.97664732
_cell_angle_beta   64.97664732
_cell_angle_gamma   63.95343203
_symmetry_Int_Tables_number   1
_chemical_formula_structural   Cu12Ni3C4
_chemical_formula_sum   'Cu24 Ni6 C8'
_cell_volume   450.61512921
_cell_formula_units_Z   2
loop_
 _symmetry_equiv_pos_site_id
 _symmetry_equiv_pos_as_xyz
  1  'x, y, z'
loop_
 _atom_site_type_symbol
 _atom_site_label
 _atom_site_symmetry_multiplicity
 _atom_site_fract_x
 _atom_site_fract_y
 _atom_site_fract_z
 _atom_site_occupancy
  C  C0  1  0.67455400  0.85960100  0.04957700  1
  C  C1  1  0.85960100  0.67455400  0.54957700  1
  C  C2  1  0.14039900  0.32544600  0.45042300  1
  C  C3  1  0.32544600  0.14039900  0.95042300  1
  C  C4  1  0.36327200  0.86918500  0.47666700  1
  C  C5  1  0.86918500  0.36327200  0.97666700  1
  C  C6  1  0.13081500  0.63672800  0.02333300  1
  C  C7  1  0.63672800  0.13081500  0.52333300  1
  Ni  Ni8  1  0.75207600  0.54288400  0.32658600  1
  Ni  Ni9  1  0.54288400  0.75207600  0.82658600  1
  Ni  Ni10  1  0.04830500  0.95169500  0.25000000  1
  Ni  Ni11  1  0.95169500  0.04830500  0.75000000  1
  Ni  Ni12  1  0.45711600  0.24792400  0.17341400  1
  Ni  Ni13  1  0.24792400  0.45711600  0.67341400  1
  Cu  Cu14  1  0.85370200  0.96125500  0.38614700  1
  Cu  Cu15  1  0.96125500  0.85370200  0.88614700  1
  Cu  Cu16  1  0.86865800  0.49525400  0.43544800  1
  Cu  Cu17  1  0.60510400  0.74622900  0.31560600  1
  Cu  Cu18  1  0.87466600  0.55961000  0.14650200  1
  Cu  Cu19  1  0.49525400  0.86865800  0.93544800  1
  Cu  Cu20  1  0.20435200  0.91519300  0.31466500  1
  Cu  Cu21  1  0.65356000  0.39751700  0.37892900  1
  Cu  Cu22  1  0.74622900  0.60510400  0.81560600  1
  Cu  Cu23  1  0.55961000  0.87466600  0.64650200  1
  Cu  Cu24  1  0.91519300  0.20435200  0.81466500  1
  Cu  Cu25  1  0.60248300  0.34644000  0.12107100  1
  Cu  Cu26  1  0.39751700  0.65356000  0.87892900  1
  Cu  Cu27  1  0.08480700  0.79564800  0.18533500  1
  Cu  Cu28  1  0.44039000  0.12533400  0.35349800  1
  Cu  Cu29  1  0.25377100  0.39489600  0.18439400  1
  Cu  Cu30  1  0.34644000  0.60248300  0.62107100  1
  Cu  Cu31  1  0.79564800  0.08480700  0.68533500  1
  Cu  Cu32  1  0.50474600  0.13134200  0.06455200  1
  Cu  Cu33  1  0.12533400  0.44039000  0.85349800  1
  Cu  Cu34  1  0.39489600  0.25377100  0.68439400  1
  Cu  Cu35  1  0.13134200  0.50474600  0.56455200  1
  Cu  Cu36  1  0.03874500  0.14629800  0.11385300  1
  Cu  Cu37  1  0.14629800  0.03874500  0.61385300  1
