# generated using pymatgen
data_Cu4NiC
_symmetry_space_group_name_H-M   'P 1'
_cell_length_a   4.93749400
_cell_length_b   7.34137600
_cell_length_c   12.14689200
_cell_angle_alpha   90.00000000
_cell_angle_beta   90.00000000
_cell_angle_gamma   90.00000000
_symmetry_Int_Tables_number   1
_chemical_formula_structural   Cu4NiC
_chemical_formula_sum   'Cu16 Ni4 C4'
_cell_volume   440.30054063
_cell_formula_units_Z   4
loop_
 _symmetry_equiv_pos_site_id
 _symmetry_equiv_pos_as_xyz
  1  'x, y, z'
loop_
 _atom_site_type_symbol
 _atom_site_label
 _atom_site_symmetry_multiplicity
 _atom_site_fract_x
 _atom_site_fract_y
 _atom_site_fract_z
 _atom_site_occupancy
  C  C0  1  0.08565700  0.00000000  0.75000000  1
  C  C1  1  0.91434300  0.50000000  0.25000000  1
  C  C2  1  0.91434300  0.00000000  0.25000000  1
  C  C3  1  0.08565700  0.50000000  0.75000000  1
  Ni  Ni4  1  0.48667800  0.25000000  0.93991900  1
  Ni  Ni5  1  0.51332200  0.75000000  0.06008100  1
  Ni  Ni6  1  0.48667800  0.75000000  0.56008100  1
  Ni  Ni7  1  0.51332200  0.25000000  0.43991900  1
  Cu  Cu8  1  0.08213000  0.25000000  0.68028600  1
  Cu  Cu9  1  0.91787000  0.75000000  0.31971400  1
  Cu  Cu10  1  0.08213000  0.75000000  0.81971400  1
  Cu  Cu11  1  0.91787000  0.25000000  0.18028600  1
  Cu  Cu12  1  0.19615400  0.25000000  0.96864600  1
  Cu  Cu13  1  0.80384600  0.75000000  0.03135400  1
  Cu  Cu14  1  0.19615400  0.75000000  0.53135400  1
  Cu  Cu15  1  0.80384600  0.25000000  0.46864600  1
  Cu  Cu16  1  0.54873500  0.08350200  0.87294900  1
  Cu  Cu17  1  0.45126500  0.58350200  0.12705100  1
  Cu  Cu18  1  0.54873500  0.91649800  0.62705100  1
  Cu  Cu19  1  0.45126500  0.41649800  0.37294900  1
  Cu  Cu20  1  0.45126500  0.91649800  0.12705100  1
  Cu  Cu21  1  0.54873500  0.41649800  0.87294900  1
  Cu  Cu22  1  0.45126500  0.08350200  0.37294900  1
  Cu  Cu23  1  0.54873500  0.58350200  0.62705100  1
