# generated using pymatgen
data_Cu7(NiC12)5
_symmetry_space_group_name_H-M   'P 1'
_cell_length_a   5.03296800
_cell_length_b   9.76438721
_cell_length_c   13.28283238
_cell_angle_alpha   97.00743309
_cell_angle_beta   100.57241151
_cell_angle_gamma   94.96458044
_symmetry_Int_Tables_number   1
_chemical_formula_structural   Cu7(NiC12)5
_chemical_formula_sum   'Cu7 Ni5 C60'
_cell_volume   632.91344034
_cell_formula_units_Z   1
loop_
 _symmetry_equiv_pos_site_id
 _symmetry_equiv_pos_as_xyz
  1  'x, y, z'
loop_
 _atom_site_type_symbol
 _atom_site_label
 _atom_site_symmetry_multiplicity
 _atom_site_fract_x
 _atom_site_fract_y
 _atom_site_fract_z
 _atom_site_occupancy
  C  C0  1  0.16357900  0.00027400  0.83338200  1
  C  C1  1  0.04676900  0.00079400  0.61279300  1
  C  C2  1  0.00144800  0.75053300  0.25083200  1
  C  C3  1  0.33473600  0.75062100  0.91643100  1
  C  C4  1  0.04874700  0.49764400  0.11235900  1
  C  C5  1  0.38203800  0.50029400  0.78111500  1
  C  C6  1  0.16490900  0.50019800  0.33287000  1
  C  C7  1  0.49483800  0.50030300  0.99911900  1
  C  C8  1  0.27988400  0.49932000  0.55254300  1
  C  C9  1  0.32956800  0.25054200  0.41635100  1
  C  C10  1  0.49921300  0.99998700  0.50035900  1
  C  C11  1  0.28923400  0.00214100  0.05493000  1
  C  C12  1  0.62158700  0.99971800  0.72092800  1
  C  C13  1  0.37938100  0.00057600  0.27853100  1
  C  C14  1  0.71507000  0.99851100  0.94607800  1
  C  C15  1  0.66905300  0.74972900  0.58401200  1
  C  C16  1  0.72273900  0.50088400  0.44791700  1
  C  C17  1  0.83341200  0.49983200  0.66695600  1
  C  C18  1  0.62065000  0.50038900  0.21966700  1
  C  C19  1  0.95148600  0.50108900  0.88680600  1
  C  C20  1  0.66705400  0.24989000  0.08464300  1
  C  C21  1  0.83073400  0.00072000  0.16609400  1
  C  C22  1  0.99972400  0.25027800  0.75055000  1
  C  C23  1  0.95369400  0.99939400  0.38679300  1
  Ni  Ni24  1  0.11371400  0.25083900  0.97252800  1
  Ni  Ni25  1  0.10871200  0.74868000  0.47173700  1
  Ni  Ni26  1  0.22029900  0.24831900  0.19290200  1
  Ni  Ni27  1  0.77707600  0.74968300  0.80628900  1
  Ni  Ni28  1  0.88832900  0.25020600  0.52782900  1
  Cu  Cu29  1  0.22789900  0.75047000  0.69340800  1
  Cu  Cu30  1  0.43650400  0.24788400  0.63849200  1
  Cu  Cu31  1  0.56413200  0.25212100  0.86362900  1
  Cu  Cu32  1  0.44950100  0.75179800  0.13901400  1
  Cu  Cu33  1  0.55586500  0.74871900  0.36288600  1
  Cu  Cu34  1  0.77095300  0.25052400  0.30645800  1
  Cu  Cu35  1  0.89682400  0.75047100  0.02887300  1
  C  C36  1  0.99579300  0.86099000  0.92841400  1
  C  C37  1  0.06740100  0.63602200  0.78445900  1
  C  C38  1  0.00386800  0.36278100  0.43081600  1
  C  C39  1  0.14091300  0.36139500  0.64218400  1
  C  C40  1  0.25893400  0.36508700  0.88241300  1
  C  C41  1  0.33056400  0.86160500  0.59543800  1
  C  C42  1  0.06853300  0.13655200  0.28426700  1
  C  C43  1  0.18726900  0.13811000  0.52256700  1
  C  C44  1  0.40144000  0.13706700  0.94967800  1
  C  C45  1  0.14213400  0.86234700  0.14160700  1
  C  C46  1  0.26055400  0.86453200  0.38201800  1
  C  C47  1  0.48195500  0.86270000  0.81106000  1
  C  C48  1  0.33941500  0.13700700  0.73639000  1
  C  C49  1  0.19280200  0.63707600  0.02624000  1
  C  C50  1  0.40298000  0.63629400  0.45193900  1
  C  C51  1  0.51857400  0.63852700  0.69115300  1
  C  C52  1  0.33760300  0.63788200  0.23992700  1
  C  C53  1  0.66358200  0.63737000  0.90335300  1
  C  C54  1  0.33548100  0.36130000  0.09529500  1
  C  C55  1  0.66203600  0.36253700  0.76400100  1
  C  C56  1  0.48001300  0.36115600  0.30783600  1
  C  C57  1  0.59795800  0.36300500  0.54958200  1
  C  C58  1  0.81106300  0.36147600  0.97652100  1
  C  C59  1  0.66224800  0.86263900  0.26209400  1
  C  C60  1  0.51642700  0.13702500  0.18823500  1
  C  C61  1  0.73935600  0.13483800  0.61770800  1
  C  C62  1  0.86270000  0.13815700  0.85853200  1
  C  C63  1  0.59407800  0.86560800  0.04837200  1
  C  C64  1  0.81034900  0.86092300  0.47516800  1
  C  C65  1  0.93165800  0.86342700  0.71522400  1
  C  C66  1  0.66992600  0.13847400  0.40371600  1
  C  C67  1  0.73480300  0.63556500  0.11511600  1
  C  C68  1  0.86293400  0.63772400  0.35692100  1
  C  C69  1  0.99570000  0.63716000  0.56927800  1
  C  C70  1  0.93169000  0.36357300  0.21526200  1
  C  C71  1  0.99790700  0.13869500  0.07111700  1
