# generated using pymatgen
data_Cu2NiC5
_symmetry_space_group_name_H-M   'P 1'
_cell_length_a   5.64076200
_cell_length_b   7.43541600
_cell_length_c   25.46811000
_cell_angle_alpha   90.00000000
_cell_angle_beta   90.00000000
_cell_angle_gamma   90.00000000
_symmetry_Int_Tables_number   1
_chemical_formula_structural   Cu2NiC5
_chemical_formula_sum   'Cu24 Ni12 C60'
_cell_volume   1068.16849506
_cell_formula_units_Z   12
loop_
 _symmetry_equiv_pos_site_id
 _symmetry_equiv_pos_as_xyz
  1  'x, y, z'
loop_
 _atom_site_type_symbol
 _atom_site_label
 _atom_site_symmetry_multiplicity
 _atom_site_fract_x
 _atom_site_fract_y
 _atom_site_fract_z
 _atom_site_occupancy
  C  C0  1  0.96557200  0.52352800  0.20485600  1
  C  C1  1  0.53442800  0.02352800  0.29514400  1
  C  C2  1  0.03442800  0.47647200  0.70485600  1
  C  C3  1  0.46557200  0.97647200  0.79514400  1
  C  C4  1  0.03442800  0.47647200  0.79514400  1
  C  C5  1  0.46557200  0.97647200  0.70485600  1
  C  C6  1  0.96557200  0.52352800  0.29514400  1
  C  C7  1  0.53442800  0.02352800  0.20485600  1
  C  C8  1  0.22886800  0.49735600  0.16939000  1
  C  C9  1  0.27113200  0.99735600  0.33061000  1
  C  C10  1  0.77113200  0.50264400  0.66939000  1
  C  C11  1  0.72886800  0.00264400  0.83061000  1
  C  C12  1  0.77113200  0.50264400  0.83061000  1
  C  C13  1  0.72886800  0.00264400  0.66939000  1
  C  C14  1  0.22886800  0.49735600  0.33061000  1
  C  C15  1  0.27113200  0.99735600  0.16939000  1
  C  C16  1  0.92550700  0.72670700  0.04599500  1
  C  C17  1  0.57449300  0.22670700  0.45400500  1
  C  C18  1  0.07449300  0.27329300  0.54599500  1
  C  C19  1  0.42550700  0.77329300  0.95400500  1
  C  C20  1  0.07449300  0.27329300  0.95400500  1
  C  C21  1  0.42550700  0.77329300  0.54599500  1
  C  C22  1  0.92550700  0.72670700  0.45400500  1
  C  C23  1  0.57449300  0.22670700  0.04599500  1
  C  C24  1  0.72265300  0.59741600  0.00869400  1
  C  C25  1  0.77734700  0.09741600  0.49130600  1
  C  C26  1  0.27734700  0.40258400  0.50869400  1
  C  C27  1  0.22265300  0.90258400  0.99130600  1
  C  C28  1  0.27734700  0.40258400  0.99130600  1
  C  C29  1  0.22265300  0.90258400  0.50869400  1
  C  C30  1  0.72265300  0.59741600  0.49130600  1
  C  C31  1  0.77734700  0.09741600  0.00869400  1
  C  C32  1  0.85682400  0.78341500  0.13287600  1
  C  C33  1  0.64317600  0.28341500  0.36712400  1
  C  C34  1  0.14317600  0.21658500  0.63287600  1
  C  C35  1  0.35682500  0.71658500  0.86712400  1
  C  C36  1  0.14317600  0.21658500  0.86712400  1
  C  C37  1  0.35682500  0.71658500  0.63287600  1
  C  C38  1  0.85682400  0.78341500  0.36712400  1
  C  C39  1  0.64317600  0.28341500  0.13287600  1
  C  C40  1  0.61502100  0.68304800  0.16482100  1
  C  C41  1  0.88497900  0.18304800  0.33517900  1
  C  C42  1  0.38497900  0.31695200  0.66482100  1
  C  C43  1  0.11502100  0.81695200  0.83517900  1
  C  C44  1  0.38497900  0.31695200  0.83517900  1
  C  C45  1  0.11502100  0.81695200  0.66482100  1
  C  C46  1  0.61502100  0.68304800  0.33517900  1
  C  C47  1  0.88497900  0.18304800  0.16482100  1
  Ni  Ni48  1  0.26522100  0.48874900  0.25000000  1
  Ni  Ni49  1  0.23477900  0.98874900  0.25000000  1
  Ni  Ni50  1  0.73477900  0.51125100  0.75000000  1
  Ni  Ni51  1  0.76522100  0.01125100  0.75000000  1
  Ni  Ni52  1  0.63132100  0.63488300  0.08573800  1
  Ni  Ni53  1  0.86867900  0.13488300  0.41426200  1
  Ni  Ni54  1  0.36867900  0.36511700  0.58573800  1
  Ni  Ni55  1  0.13132100  0.86511700  0.91426200  1
  Ni  Ni56  1  0.36867900  0.36511700  0.91426200  1
  Ni  Ni57  1  0.13132100  0.86511700  0.58573800  1
  Ni  Ni58  1  0.63132100  0.63488300  0.41426200  1
  Ni  Ni59  1  0.86867900  0.13488300  0.08573800  1
  C  C60  1  0.56611600  0.45997900  0.25000000  1
  C  C61  1  0.93388400  0.95997900  0.25000000  1
  C  C62  1  0.43388400  0.54002100  0.75000000  1
  C  C63  1  0.06611600  0.04002100  0.75000000  1
  C  C64  1  0.37329900  0.51341600  0.08208800  1
  C  C65  1  0.12670100  0.01341600  0.41791200  1
  C  C66  1  0.62670100  0.48658400  0.58208800  1
  C  C67  1  0.87329900  0.98658400  0.91791200  1
  C  C68  1  0.62670100  0.48658400  0.91791200  1
  C  C69  1  0.87329900  0.98658400  0.58208800  1
  C  C70  1  0.37329900  0.51341600  0.41791200  1
  C  C71  1  0.12670100  0.01341600  0.08208800  1
  Cu  Cu72  1  0.14292200  0.49801000  0.20488300  1
  Cu  Cu73  1  0.35707800  0.99801000  0.29511700  1
  Cu  Cu74  1  0.85707800  0.50199000  0.70488300  1
  Cu  Cu75  1  0.64292200  0.00199000  0.79511700  1
  Cu  Cu76  1  0.85707800  0.50199000  0.79511700  1
  Cu  Cu77  1  0.64292200  0.00199000  0.70488300  1
  Cu  Cu78  1  0.14292200  0.49801000  0.29511700  1
  Cu  Cu79  1  0.35707800  0.99801000  0.20488300  1
  Cu  Cu80  1  0.77058500  0.65512400  0.04352200  1
  Cu  Cu81  1  0.72941500  0.15512400  0.45647800  1
  Cu  Cu82  1  0.22941500  0.34487600  0.54352200  1
  Cu  Cu83  1  0.27058500  0.84487600  0.95647800  1
  Cu  Cu84  1  0.22941500  0.34487600  0.95647800  1
  Cu  Cu85  1  0.27058500  0.84487600  0.54352200  1
  Cu  Cu86  1  0.77058500  0.65512400  0.45647800  1
  Cu  Cu87  1  0.72941500  0.15512400  0.04352200  1
  Cu  Cu88  1  0.70094900  0.71282600  0.13076200  1
  Cu  Cu89  1  0.79905100  0.21282600  0.36923800  1
  Cu  Cu90  1  0.29905100  0.28717400  0.63076200  1
  Cu  Cu91  1  0.20094900  0.78717400  0.86923800  1
  Cu  Cu92  1  0.29905100  0.28717400  0.86923800  1
  Cu  Cu93  1  0.20094900  0.78717400  0.63076200  1
  Cu  Cu94  1  0.70094900  0.71282600  0.36923800  1
  Cu  Cu95  1  0.79905100  0.21282600  0.13076200  1
