# generated using pymatgen
data_Cu2Ni3C23
_symmetry_space_group_name_H-M   'P 1'
_cell_length_a   5.95716519
_cell_length_b   5.95716519
_cell_length_c   9.69085064
_cell_angle_alpha   89.51174492
_cell_angle_beta   89.51174492
_cell_angle_gamma   59.67717926
_symmetry_Int_Tables_number   1
_chemical_formula_structural   Cu2Ni3C23
_chemical_formula_sum   'Cu2 Ni3 C23'
_cell_volume   296.84443306
_cell_formula_units_Z   1
loop_
 _symmetry_equiv_pos_site_id
 _symmetry_equiv_pos_as_xyz
  1  'x, y, z'
loop_
 _atom_site_type_symbol
 _atom_site_label
 _atom_site_symmetry_multiplicity
 _atom_site_fract_x
 _atom_site_fract_y
 _atom_site_fract_z
 _atom_site_occupancy
  C  C0  1  0.66159600  0.66159600  0.10780800  1
  C  C1  1  0.99743200  0.99743200  0.01584900  1
  C  C2  1  0.00115800  0.00115800  0.50268600  1
  C  C3  1  0.33102200  0.33102200  0.59399800  1
  C  C4  1  0.34328900  0.83233000  0.78323600  1
  C  C5  1  0.83233000  0.34328900  0.78323600  1
  C  C6  1  0.17448000  0.17448000  0.27951400  1
  Ni  Ni7  1  0.82987000  0.82987000  0.78923400  1
  Ni  Ni8  1  0.17145300  0.65795500  0.28802100  1
  Ni  Ni9  1  0.65795500  0.17145300  0.28802100  1
  Cu  Cu10  1  0.67078300  0.67078300  0.50451200  1
  Cu  Cu11  1  0.34047200  0.34047200  0.01602000  1
  C  C12  1  0.33634100  0.83458300  0.40718100  1
  C  C13  1  0.51843900  0.51843900  0.66039800  1
  C  C14  1  0.64870800  0.64870800  0.89173400  1
  C  C15  1  0.00984700  0.00984700  0.69569100  1
  C  C16  1  0.01248300  0.01248300  0.20193000  1
  C  C17  1  0.83458300  0.33634100  0.40718100  1
  C  C18  1  0.50899700  0.95941300  0.65827500  1
  C  C19  1  0.95941300  0.50899700  0.65827500  1
  C  C20  1  0.16735400  0.16735400  0.89809200  1
  C  C21  1  0.83801000  0.83801000  0.41141300  1
  C  C22  1  0.03196300  0.47278500  0.14784500  1
  C  C23  1  0.47278500  0.03196300  0.14784500  1
  C  C24  1  0.31469500  0.31469500  0.39417800  1
  C  C25  1  0.16948100  0.67284600  0.90353800  1
  C  C26  1  0.48184300  0.48184300  0.15178400  1
  C  C27  1  0.67284600  0.16948100  0.90353800  1
