# generated using pymatgen
data_Cu3Ni2C15
_symmetry_space_group_name_H-M   'P 1'
_cell_length_a   5.24002820
_cell_length_b   7.91992783
_cell_length_c   10.51719333
_cell_angle_alpha   107.55248950
_cell_angle_beta   79.00652925
_cell_angle_gamma   108.12277642
_symmetry_Int_Tables_number   1
_chemical_formula_structural   Cu3Ni2C15
_chemical_formula_sum   'Cu6 Ni4 C30'
_cell_volume   393.23707372
_cell_formula_units_Z   2
loop_
 _symmetry_equiv_pos_site_id
 _symmetry_equiv_pos_as_xyz
  1  'x, y, z'
loop_
 _atom_site_type_symbol
 _atom_site_label
 _atom_site_symmetry_multiplicity
 _atom_site_fract_x
 _atom_site_fract_y
 _atom_site_fract_z
 _atom_site_occupancy
  C  C0  1  0.49985800  0.49997900  0.50002600  1
  C  C1  1  0.50014300  0.50002200  0.99997300  1
  C  C2  1  0.22853800  0.40362300  0.24111100  1
  C  C3  1  0.22844000  0.40367900  0.74113800  1
  C  C4  1  0.77156200  0.59632100  0.75886200  1
  C  C5  1  0.77146400  0.59637800  0.25889000  1
  C  C6  1  0.39583100  0.78608700  0.74442700  1
  C  C7  1  0.39612700  0.78624800  0.24446400  1
  C  C8  1  0.60387300  0.21375100  0.25553500  1
  C  C9  1  0.60417200  0.21391200  0.75557300  1
  Ni  Ni10  1  0.09108700  0.67661700  0.49576700  1
  Ni  Ni11  1  0.09131500  0.67673500  0.99580200  1
  Ni  Ni12  1  0.90868700  0.32326700  0.50419800  1
  Ni  Ni13  1  0.90891400  0.32338300  0.00423300  1
  Cu  Cu14  1  0.00001500  0.99999600  0.24999300  1
  Cu  Cu15  1  0.69405100  0.90136700  0.50247300  1
  Cu  Cu16  1  0.30595400  0.09863400  0.99752600  1
  Cu  Cu17  1  0.99996700  0.99998800  0.75001400  1
  Cu  Cu18  1  0.69394000  0.90136600  0.00239400  1
  Cu  Cu19  1  0.30604400  0.09863500  0.49760500  1
  C  C20  1  0.04937200  0.85482400  0.87549700  1
  C  C21  1  0.04925400  0.85475700  0.37547400  1
  C  C22  1  0.95074700  0.14524300  0.12452500  1
  C  C23  1  0.95063100  0.14517800  0.62450200  1
  C  C24  1  0.32820300  0.93772600  0.62544700  1
  C  C25  1  0.32845000  0.93789000  0.12552300  1
  C  C26  1  0.67155100  0.06211000  0.37447700  1
  C  C27  1  0.67180000  0.06227500  0.87455200  1
  C  C28  1  0.16093300  0.54598500  0.62609500  1
  C  C29  1  0.16114000  0.54607200  0.12604800  1
  C  C30  1  0.83886100  0.45392800  0.37395200  1
  C  C31  1  0.83906800  0.45401500  0.87390400  1
  C  C32  1  0.22748900  0.24641200  0.37445200  1
  C  C33  1  0.22769000  0.24649700  0.87441400  1
  C  C34  1  0.77231300  0.75350500  0.62558600  1
  C  C35  1  0.77251200  0.75358800  0.12554700  1
  C  C36  1  0.43183200  0.65563000  0.38328700  1
  C  C37  1  0.43206900  0.65568000  0.88326000  1
  C  C38  1  0.56793200  0.34432100  0.61673900  1
  C  C39  1  0.56817000  0.34437100  0.11671300  1
