# generated using pymatgen
data_Cu3NiC36
_symmetry_space_group_name_H-M   'P 1'
_cell_length_a   9.04514118
_cell_length_b   9.04514118
_cell_length_c   9.04514192
_cell_angle_alpha   55.92824756
_cell_angle_beta   55.92824756
_cell_angle_gamma   55.92824768
_symmetry_Int_Tables_number   1
_chemical_formula_structural   Cu3NiC36
_chemical_formula_sum   'Cu3 Ni1 C36'
_cell_volume   473.89943746
_cell_formula_units_Z   1
loop_
 _symmetry_equiv_pos_site_id
 _symmetry_equiv_pos_as_xyz
  1  'x, y, z'
loop_
 _atom_site_type_symbol
 _atom_site_label
 _atom_site_symmetry_multiplicity
 _atom_site_fract_x
 _atom_site_fract_y
 _atom_site_fract_z
 _atom_site_occupancy
  C  C0  1  0.26706000  0.92208600  0.66153800  1
  C  C1  1  0.92208600  0.66153800  0.26706000  1
  C  C2  1  0.66153800  0.26706000  0.92208600  1
  C  C3  1  0.33116900  0.74113700  0.07578000  1
  C  C4  1  0.07578000  0.33116900  0.74113700  1
  C  C5  1  0.74113700  0.07578000  0.33116900  1
  Ni  Ni6  1  0.14588400  0.14588400  0.14588400  1
  Cu  Cu7  1  0.65138800  0.65138800  0.65138800  1
  Cu  Cu8  1  0.85386800  0.85386800  0.85386800  1
  Cu  Cu9  1  0.34899700  0.34899700  0.34899700  1
  C  C10  1  0.95785300  0.24915900  0.54245600  1
  C  C11  1  0.54245600  0.95785300  0.24915900  1
  C  C12  1  0.24915900  0.54245600  0.95785300  1
  C  C13  1  0.74567200  0.46223700  0.04126800  1
  C  C14  1  0.46223700  0.04126800  0.74567200  1
  C  C15  1  0.04126800  0.74567200  0.46223700  1
  C  C16  1  0.15497600  0.20850700  0.53903500  1
  C  C17  1  0.83186000  0.46398700  0.51455500  1
  C  C18  1  0.51455500  0.83186000  0.46398700  1
  C  C19  1  0.53903500  0.15497600  0.20850700  1
  C  C20  1  0.20850700  0.53903500  0.15497600  1
  C  C21  1  0.98588200  0.20138000  0.39308700  1
  C  C22  1  0.74967300  0.86424000  0.12089600  1
  C  C23  1  0.39308700  0.98588200  0.20138000  1
  C  C24  1  0.46398700  0.51455500  0.83186000  1
  C  C25  1  0.12089600  0.74967300  0.86424000  1
  C  C26  1  0.20138000  0.39308700  0.98588200  1
  C  C27  1  0.86424000  0.12089600  0.74967300  1
  C  C28  1  0.13384100  0.86807900  0.25954500  1
  C  C29  1  0.80054800  0.61726300  0.00293700  1
  C  C30  1  0.86807900  0.25954500  0.13384100  1
  C  C31  1  0.52998400  0.49910400  0.16528600  1
  C  C32  1  0.61726300  0.00293700  0.80054800  1
  C  C33  1  0.25954500  0.13384100  0.86807900  1
  C  C34  1  0.00293700  0.80054800  0.61726300  1
  C  C35  1  0.78615300  0.46735900  0.84426000  1
  C  C36  1  0.46735900  0.84426000  0.78615300  1
  C  C37  1  0.49910400  0.16528600  0.52998400  1
  C  C38  1  0.16528600  0.52998400  0.49910400  1
  C  C39  1  0.84426000  0.78615300  0.46735900  1
