# generated using pymatgen
data_Cu2NiC2
_symmetry_space_group_name_H-M   'P 1'
_cell_length_a   6.87180504
_cell_length_b   6.09155665
_cell_length_c   5.72255369
_cell_angle_alpha   71.05661790
_cell_angle_beta   56.97637473
_cell_angle_gamma   51.96700737
_symmetry_Int_Tables_number   1
_chemical_formula_structural   Cu2NiC2
_chemical_formula_sum   'Cu4 Ni2 C4'
_cell_volume   158.17538497
_cell_formula_units_Z   2
loop_
 _symmetry_equiv_pos_site_id
 _symmetry_equiv_pos_as_xyz
  1  'x, y, z'
loop_
 _atom_site_type_symbol
 _atom_site_label
 _atom_site_symmetry_multiplicity
 _atom_site_fract_x
 _atom_site_fract_y
 _atom_site_fract_z
 _atom_site_occupancy
  C  C0  1  0.12500000  0.12500000  0.62500000  1
  C  C1  1  0.12500000  0.12500000  0.12500000  1
  C  C2  1  0.12500000  0.62500000  0.12500000  1
  C  C3  1  0.62500000  0.12500000  0.12500000  1
  Ni  Ni4  1  0.25000000  0.25000000  0.25000000  1
  Ni  Ni5  1  0.00000000  0.00000000  0.00000000  1
  Cu  Cu6  1  0.25667900  0.25667900  0.74332100  1
  Cu  Cu7  1  0.50667900  0.50667900  0.99332100  1
  Cu  Cu8  1  0.74332100  0.74332100  0.25667900  1
  Cu  Cu9  1  0.99332100  0.99332100  0.50667900  1
