# generated using pymatgen
data_Cu12Ni3C4
_symmetry_space_group_name_H-M   'P 1'
_cell_length_a   9.10033200
_cell_length_b   9.67083400
_cell_length_c   13.62643400
_cell_angle_alpha   90.00000000
_cell_angle_beta   90.00000000
_cell_angle_gamma   90.00000000
_symmetry_Int_Tables_number   1
_chemical_formula_structural   Cu12Ni3C4
_chemical_formula_sum   'Cu48 Ni12 C16'
_cell_volume   1199.23247978
_cell_formula_units_Z   4
loop_
 _symmetry_equiv_pos_site_id
 _symmetry_equiv_pos_as_xyz
  1  'x, y, z'
loop_
 _atom_site_type_symbol
 _atom_site_label
 _atom_site_symmetry_multiplicity
 _atom_site_fract_x
 _atom_site_fract_y
 _atom_site_fract_z
 _atom_site_occupancy
  C  C0  1  0.21250700  0.27660900  0.18163000  1
  C  C1  1  0.78749300  0.77660900  0.18163000  1
  C  C2  1  0.28749300  0.77660900  0.31837000  1
  C  C3  1  0.71250700  0.27660900  0.31837000  1
  C  C4  1  0.28749300  0.72339100  0.68163000  1
  C  C5  1  0.71250700  0.22339100  0.68163000  1
  C  C6  1  0.21250700  0.22339100  0.81837000  1
  C  C7  1  0.78749300  0.72339100  0.81837000  1
  C  C8  1  0.24993100  0.95004800  0.09988200  1
  C  C9  1  0.75006900  0.45004800  0.09988200  1
  C  C10  1  0.74993100  0.95004800  0.40011800  1
  C  C11  1  0.25006900  0.45004800  0.40011800  1
  C  C12  1  0.25006900  0.04995200  0.59988200  1
  C  C13  1  0.74993100  0.54995200  0.59988200  1
  C  C14  1  0.24993100  0.54995200  0.90011800  1
  C  C15  1  0.75006900  0.04995200  0.90011800  1
  Ni  Ni16  1  0.43828600  0.25000000  0.00000000  1
  Ni  Ni17  1  0.56171400  0.75000000  0.00000000  1
  Ni  Ni18  1  0.10256900  0.60374600  0.15086000  1
  Ni  Ni19  1  0.89743100  0.10374600  0.15086000  1
  Ni  Ni20  1  0.39743100  0.10374600  0.34914000  1
  Ni  Ni21  1  0.60256900  0.60374600  0.34914000  1
  Ni  Ni22  1  0.06171400  0.75000000  0.50000000  1
  Ni  Ni23  1  0.93828600  0.25000000  0.50000000  1
  Ni  Ni24  1  0.39743100  0.39625400  0.65086000  1
  Ni  Ni25  1  0.60256900  0.89625400  0.65086000  1
  Ni  Ni26  1  0.10256900  0.89625400  0.84914000  1
  Ni  Ni27  1  0.89743100  0.39625400  0.84914000  1
  Cu  Cu28  1  0.12919900  0.59701100  0.04239100  1
  Cu  Cu29  1  0.87080100  0.09701100  0.04239100  1
  Cu  Cu30  1  0.52948700  0.36333600  0.04063500  1
  Cu  Cu31  1  0.47051300  0.86333600  0.04063500  1
  Cu  Cu32  1  0.34265200  0.19320500  0.07975500  1
  Cu  Cu33  1  0.65734800  0.69320500  0.07975500  1
  Cu  Cu34  1  0.05701400  0.13019300  0.16663200  1
  Cu  Cu35  1  0.94298600  0.63019300  0.16663200  1
  Cu  Cu36  1  0.18934200  0.72102400  0.19286200  1
  Cu  Cu37  1  0.81065800  0.22102400  0.19286200  1
  Cu  Cu38  1  0.85347100  0.97128300  0.19758200  1
  Cu  Cu39  1  0.14652900  0.47128300  0.19758200  1
  Cu  Cu40  1  0.35347100  0.97128300  0.30241800  1
  Cu  Cu41  1  0.64652900  0.47128300  0.30241800  1
  Cu  Cu42  1  0.68934200  0.72102400  0.30713800  1
  Cu  Cu43  1  0.31065800  0.22102400  0.30713800  1
  Cu  Cu44  1  0.44298600  0.63019300  0.33336800  1
  Cu  Cu45  1  0.55701400  0.13019300  0.33336800  1
  Cu  Cu46  1  0.15734800  0.69320500  0.42024500  1
  Cu  Cu47  1  0.84265200  0.19320500  0.42024500  1
  Cu  Cu48  1  0.02948700  0.36333600  0.45936500  1
  Cu  Cu49  1  0.97051300  0.86333600  0.45936500  1
  Cu  Cu50  1  0.62919900  0.59701100  0.45760900  1
  Cu  Cu51  1  0.37080100  0.09701100  0.45760900  1
  Cu  Cu52  1  0.37080100  0.40298900  0.54239100  1
  Cu  Cu53  1  0.62919900  0.90298900  0.54239100  1
  Cu  Cu54  1  0.02948700  0.13666400  0.54063500  1
  Cu  Cu55  1  0.97051300  0.63666400  0.54063500  1
  Cu  Cu56  1  0.15734800  0.80679500  0.57975500  1
  Cu  Cu57  1  0.84265200  0.30679500  0.57975500  1
  Cu  Cu58  1  0.44298600  0.86980700  0.66663200  1
  Cu  Cu59  1  0.55701400  0.36980700  0.66663200  1
  Cu  Cu60  1  0.31065800  0.27897600  0.69286200  1
  Cu  Cu61  1  0.68934200  0.77897600  0.69286200  1
  Cu  Cu62  1  0.35347100  0.52871700  0.69758200  1
  Cu  Cu63  1  0.64652900  0.02871700  0.69758200  1
  Cu  Cu64  1  0.14652900  0.02871700  0.80241800  1
  Cu  Cu65  1  0.85347100  0.52871700  0.80241800  1
  Cu  Cu66  1  0.18934200  0.77897600  0.80713800  1
  Cu  Cu67  1  0.81065800  0.27897600  0.80713800  1
  Cu  Cu68  1  0.05701400  0.36980700  0.83336800  1
  Cu  Cu69  1  0.94298600  0.86980700  0.83336800  1
  Cu  Cu70  1  0.34265200  0.30679500  0.92024500  1
  Cu  Cu71  1  0.65734800  0.80679500  0.92024500  1
  Cu  Cu72  1  0.47051300  0.63666400  0.95936500  1
  Cu  Cu73  1  0.52948700  0.13666400  0.95936500  1
  Cu  Cu74  1  0.12919900  0.90298900  0.95760900  1
  Cu  Cu75  1  0.87080100  0.40298900  0.95760900  1
