# generated using pymatgen
data_Cu9NiC30
_symmetry_space_group_name_H-M   'P 1'
_cell_length_a   21.47679949
_cell_length_b   2.79205873
_cell_length_c   5.71465494
_cell_angle_alpha   89.99998936
_cell_angle_beta   82.48703893
_cell_angle_gamma   89.99999273
_symmetry_Int_Tables_number   1
_chemical_formula_structural   Cu9NiC30
_chemical_formula_sum   'Cu9 Ni1 C30'
_cell_volume   339.73457271
_cell_formula_units_Z   1
loop_
 _symmetry_equiv_pos_site_id
 _symmetry_equiv_pos_as_xyz
  1  'x, y, z'
loop_
 _atom_site_type_symbol
 _atom_site_label
 _atom_site_symmetry_multiplicity
 _atom_site_fract_x
 _atom_site_fract_y
 _atom_site_fract_z
 _atom_site_occupancy
  C  C0  1  0.90114000  0.50000000  0.30371200  1
  C  C1  1  0.79820600  0.00000000  0.09983100  1
  C  C2  1  0.70031900  0.50000000  0.89893200  1
  C  C3  1  0.60009800  0.00000000  0.69981500  1
  C  C4  1  0.50000000  0.50000000  0.50000000  1
  C  C5  1  0.39990200  0.00000000  0.30018500  1
  C  C6  1  0.20179400  0.00000000  0.90016900  1
  C  C7  1  0.29968100  0.50000000  0.10106800  1
  C  C8  1  0.09886000  0.50000000  0.69628800  1
  C  C9  1  0.00000000  0.00000000  0.50000000  1
  Ni  Ni10  1  0.00000000  0.00000000  0.00000000  1
  Cu  Cu11  1  0.90314100  0.50000000  0.79792100  1
  Cu  Cu12  1  0.80124100  0.00000000  0.60037500  1
  Cu  Cu13  1  0.70033300  0.50000000  0.40014500  1
  Cu  Cu14  1  0.60007600  0.00000000  0.19987500  1
  Cu  Cu15  1  0.39992400  0.00000000  0.80012500  1
  Cu  Cu16  1  0.50000000  0.50000000  0.00000000  1
  Cu  Cu17  1  0.29966700  0.50000000  0.59985500  1
  Cu  Cu18  1  0.19875900  0.00000000  0.39962500  1
  Cu  Cu19  1  0.09685900  0.50000000  0.20207900  1
  C  C20  1  0.00069100  0.50000000  0.77194700  1
  C  C21  1  0.89969700  0.00000000  0.57281400  1
  C  C22  1  0.80145000  0.50000000  0.82939100  1
  C  C23  1  0.90920600  0.00000000  0.02334900  1
  C  C24  1  0.70037000  0.00000000  0.62580000  1
  C  C25  1  0.80080100  0.50000000  0.37188200  1
  C  C26  1  0.60010200  0.50000000  0.97468000  1
  C  C27  1  0.70011700  0.00000000  0.17456100  1
  C  C28  1  0.60000200  0.50000000  0.42506200  1
  C  C29  1  0.50005700  0.00000000  0.77473000  1
  C  C30  1  0.49994300  0.00000000  0.22527000  1
  C  C31  1  0.29988300  0.00000000  0.82543900  1
  C  C32  1  0.39999800  0.50000000  0.57493800  1
  C  C33  1  0.39989800  0.50000000  0.02532000  1
  C  C34  1  0.29963000  0.00000000  0.37420000  1
  C  C35  1  0.19919900  0.50000000  0.62811800  1
  C  C36  1  0.09079400  0.00000000  0.97665100  1
  C  C37  1  0.19855000  0.50000000  0.17060900  1
  C  C38  1  0.10030300  0.00000000  0.42718600  1
  C  C39  1  0.99930900  0.50000000  0.22805300  1
