# generated using pymatgen
data_Cu4NiC2
_symmetry_space_group_name_H-M   'P 1'
_cell_length_a   12.64979100
_cell_length_b   7.51364300
_cell_length_c   8.00983589
_cell_angle_alpha   87.82625018
_cell_angle_beta   90.00000000
_cell_angle_gamma   90.00000000
_symmetry_Int_Tables_number   1
_chemical_formula_structural   Cu4NiC2
_chemical_formula_sum   'Cu32 Ni8 C16'
_cell_volume   760.75513616
_cell_formula_units_Z   8
loop_
 _symmetry_equiv_pos_site_id
 _symmetry_equiv_pos_as_xyz
  1  'x, y, z'
loop_
 _atom_site_type_symbol
 _atom_site_label
 _atom_site_symmetry_multiplicity
 _atom_site_fract_x
 _atom_site_fract_y
 _atom_site_fract_z
 _atom_site_occupancy
  C  C0  1  0.93326400  0.28478400  0.65752300  1
  C  C1  1  0.43326400  0.71521600  0.84247700  1
  C  C2  1  0.06673600  0.71521600  0.34247700  1
  C  C3  1  0.56673600  0.28478400  0.15752300  1
  C  C4  1  0.25374800  0.38135900  0.11977700  1
  C  C5  1  0.75374800  0.61864100  0.38022300  1
  C  C6  1  0.74625200  0.61864100  0.88022300  1
  C  C7  1  0.24625200  0.38135900  0.61977700  1
  C  C8  1  0.66036000  0.98700100  0.72730400  1
  C  C9  1  0.16036000  0.01299900  0.77269600  1
  C  C10  1  0.33964000  0.01299900  0.27269600  1
  C  C11  1  0.83964000  0.98700100  0.22730400  1
  C  C12  1  0.45598100  0.16918400  0.60892200  1
  C  C13  1  0.95598100  0.83081600  0.89107800  1
  C  C14  1  0.54401900  0.83081600  0.39107800  1
  C  C15  1  0.04401900  0.16918400  0.10892200  1
  Ni  Ni16  1  0.19460800  0.23434900  0.33583800  1
  Ni  Ni17  1  0.69460800  0.76565100  0.16416200  1
  Ni  Ni18  1  0.80539200  0.76565100  0.66416200  1
  Ni  Ni19  1  0.30539200  0.23434900  0.83583800  1
  Ni  Ni20  1  0.61109400  0.26168500  0.66770000  1
  Ni  Ni21  1  0.11109400  0.73831500  0.83230000  1
  Ni  Ni22  1  0.38890600  0.73831500  0.33230000  1
  Ni  Ni23  1  0.88890600  0.26168500  0.16770000  1
  Cu  Cu24  1  0.12436900  0.10219800  0.26284200  1
  Cu  Cu25  1  0.62436900  0.89780200  0.23715800  1
  Cu  Cu26  1  0.87563100  0.89780200  0.73715800  1
  Cu  Cu27  1  0.37563100  0.10219800  0.76284200  1
  Cu  Cu28  1  0.15261700  0.30793500  0.48931900  1
  Cu  Cu29  1  0.65261700  0.69206500  0.01068100  1
  Cu  Cu30  1  0.84738300  0.69206500  0.51068100  1
  Cu  Cu31  1  0.34738300  0.30793500  0.98931900  1
  Cu  Cu32  1  0.30372400  0.16741300  0.35836500  1
  Cu  Cu33  1  0.80372400  0.83258700  0.14163500  1
  Cu  Cu34  1  0.69627600  0.83258700  0.64163500  1
  Cu  Cu35  1  0.19627600  0.16741300  0.85836500  1
  Cu  Cu36  1  0.19910400  0.40116800  0.20941100  1
  Cu  Cu37  1  0.69910400  0.59883200  0.29058900  1
  Cu  Cu38  1  0.80089600  0.59883200  0.79058900  1
  Cu  Cu39  1  0.30089600  0.40116800  0.70941100  1
  Cu  Cu40  1  0.70304700  0.29278500  0.56451300  1
  Cu  Cu41  1  0.20304700  0.70721500  0.93548700  1
  Cu  Cu42  1  0.29695300  0.70721500  0.43548700  1
  Cu  Cu43  1  0.79695300  0.29278500  0.06451300  1
  Cu  Cu44  1  0.57292400  0.40184300  0.76986900  1
  Cu  Cu45  1  0.07292400  0.59815700  0.73013100  1
  Cu  Cu46  1  0.42707600  0.59815700  0.23013100  1
  Cu  Cu47  1  0.92707600  0.40184300  0.26986900  1
  Cu  Cu48  1  0.62628400  0.09565400  0.78828600  1
  Cu  Cu49  1  0.12628400  0.90434600  0.71171400  1
  Cu  Cu50  1  0.37371600  0.90434600  0.21171400  1
  Cu  Cu51  1  0.87371600  0.09565400  0.28828600  1
  Cu  Cu52  1  0.52181800  0.20398700  0.54202800  1
  Cu  Cu53  1  0.02181800  0.79601300  0.95797200  1
  Cu  Cu54  1  0.47818200  0.79601300  0.45797200  1
  Cu  Cu55  1  0.97818200  0.20398700  0.04202800  1
