# generated using pymatgen
data_Cu8(Ni2C9)3
_symmetry_space_group_name_H-M   'P 1'
_cell_length_a   7.01120700
_cell_length_b   7.49344322
_cell_length_c   8.57368673
_cell_angle_alpha   84.98040173
_cell_angle_beta   76.32377806
_cell_angle_gamma   86.00004733
_symmetry_Int_Tables_number   1
_chemical_formula_structural   Cu8(Ni2C9)3
_chemical_formula_sum   'Cu8 Ni6 C27'
_cell_volume   435.43457321
_cell_formula_units_Z   1
loop_
 _symmetry_equiv_pos_site_id
 _symmetry_equiv_pos_as_xyz
  1  'x, y, z'
loop_
 _atom_site_type_symbol
 _atom_site_label
 _atom_site_symmetry_multiplicity
 _atom_site_fract_x
 _atom_site_fract_y
 _atom_site_fract_z
 _atom_site_occupancy
  C  C0  1  0.93497600  0.64862100  0.41542600  1
  C  C1  1  0.67899600  0.55865500  0.76220100  1
  C  C2  1  0.32100400  0.44134500  0.23779900  1
  C  C3  1  0.06502400  0.35137900  0.58457400  1
  C  C4  1  0.00000000  0.00000000  0.00000000  1
  Ni  Ni5  1  0.77798800  0.98172800  0.69098500  1
  Ni  Ni6  1  0.55667900  0.78588700  0.16667400  1
  Ni  Ni7  1  0.34533900  0.70696500  0.49376400  1
  Ni  Ni8  1  0.65466100  0.29303500  0.50623600  1
  Ni  Ni9  1  0.44332100  0.21411300  0.83332600  1
  Ni  Ni10  1  0.22201200  0.01827200  0.30901500  1
  Cu  Cu11  1  0.26723200  0.74946500  0.81007400  1
  Cu  Cu12  1  0.27744400  0.72159400  0.99224200  1
  Cu  Cu13  1  0.98312700  0.60958400  0.11566000  1
  Cu  Cu14  1  0.03625800  0.58782200  0.81361500  1
  Cu  Cu15  1  0.96374200  0.41217800  0.18638500  1
  Cu  Cu16  1  0.01687300  0.39041600  0.88434000  1
  Cu  Cu17  1  0.72255600  0.27840600  0.00775800  1
  Cu  Cu18  1  0.73276800  0.25053500  0.18992600  1
  C  C19  1  0.43671500  0.97923000  0.18777700  1
  C  C20  1  0.25313600  0.91020700  0.47541900  1
  C  C21  1  0.80164300  0.78664000  0.66103100  1
  C  C22  1  0.06859200  0.93130900  0.24869700  1
  C  C23  1  0.76642300  0.81907100  0.08667200  1
  C  C24  1  0.18540400  0.76443700  0.92234100  1
  C  C25  1  0.54796600  0.71750600  0.35415400  1
  C  C26  1  0.40253200  0.67739100  0.65074800  1
  C  C27  1  0.45199100  0.65553200  0.09718700  1
  C  C28  1  0.98096000  0.47501600  0.80075100  1
  C  C29  1  0.20889000  0.57883600  0.45301200  1
  C  C30  1  0.79111000  0.42116400  0.54698800  1
  C  C31  1  0.01904000  0.52498400  0.19924900  1
  C  C32  1  0.54800900  0.34446800  0.90281300  1
  C  C33  1  0.59746800  0.32260900  0.34925200  1
  C  C34  1  0.45203400  0.28249400  0.64584600  1
  C  C35  1  0.81459600  0.23556300  0.07765900  1
  C  C36  1  0.23357700  0.18092900  0.91332800  1
  C  C37  1  0.93140800  0.06869100  0.75130300  1
  C  C38  1  0.19835700  0.21336000  0.33896900  1
  C  C39  1  0.74686400  0.08979300  0.52458100  1
  C  C40  1  0.56328500  0.02077000  0.81222300  1
