# generated using pymatgen
data_CuNi3C10
_symmetry_space_group_name_H-M   'P 1'
_cell_length_a   8.28384600
_cell_length_b   8.28384600
_cell_length_c   8.28384600
_cell_angle_alpha   90.00000000
_cell_angle_beta   90.00000000
_cell_angle_gamma   90.00000000
_symmetry_Int_Tables_number   1
_chemical_formula_structural   CuNi3C10
_chemical_formula_sum   'Cu4 Ni12 C40'
_cell_volume   568.45494630
_cell_formula_units_Z   4
loop_
 _symmetry_equiv_pos_site_id
 _symmetry_equiv_pos_as_xyz
  1  'x, y, z'
loop_
 _atom_site_type_symbol
 _atom_site_label
 _atom_site_symmetry_multiplicity
 _atom_site_fract_x
 _atom_site_fract_y
 _atom_site_fract_z
 _atom_site_occupancy
  C  C0  1  0.00373400  0.00373400  0.00373400  1
  C  C1  1  0.24626600  0.24626600  0.24626600  1
  C  C2  1  0.25373400  0.75373400  0.74626600  1
  C  C3  1  0.49626600  0.99626600  0.50373400  1
  C  C4  1  0.50373400  0.49626600  0.99626600  1
  C  C5  1  0.74626600  0.25373400  0.75373400  1
  C  C6  1  0.75373400  0.74626600  0.25373400  1
  C  C7  1  0.99626600  0.50373400  0.49626600  1
  Ni  Ni8  1  0.12118000  0.12882000  0.62500000  1
  Ni  Ni9  1  0.12500000  0.37882000  0.87118000  1
  Ni  Ni10  1  0.12882000  0.62500000  0.12118000  1
  Ni  Ni11  1  0.37118000  0.37500000  0.62118000  1
  Ni  Ni12  1  0.37500000  0.62118000  0.37118000  1
  Ni  Ni13  1  0.37882000  0.87118000  0.12500000  1
  Ni  Ni14  1  0.62118000  0.37118000  0.37500000  1
  Ni  Ni15  1  0.62500000  0.12118000  0.12882000  1
  Ni  Ni16  1  0.62882000  0.87500000  0.87882000  1
  Ni  Ni17  1  0.87118000  0.12500000  0.37882000  1
  Ni  Ni18  1  0.87500000  0.87882000  0.62882000  1
  Ni  Ni19  1  0.87882000  0.62882000  0.87500000  1
  Cu  Cu20  1  0.12500000  0.87500000  0.37500000  1
  Cu  Cu21  1  0.37500000  0.12500000  0.87500000  1
  Cu  Cu22  1  0.62500000  0.62500000  0.62500000  1
  Cu  Cu23  1  0.87500000  0.37500000  0.12500000  1
  C  C24  1  0.10129900  0.12388600  0.39210300  1
  C  C25  1  0.10789700  0.89870100  0.62388600  1
  C  C26  1  0.11553000  0.61553000  0.88447000  1
  C  C27  1  0.12388600  0.39210300  0.10129900  1
  C  C28  1  0.12611400  0.14870100  0.85789700  1
  C  C29  1  0.13447000  0.36553000  0.63447000  1
  C  C30  1  0.14210300  0.62611400  0.35129900  1
  C  C31  1  0.14870100  0.85789700  0.12611400  1
  C  C32  1  0.35129900  0.14210300  0.62611400  1
  C  C33  1  0.35789700  0.37388600  0.85129900  1
  C  C34  1  0.36553000  0.63447000  0.13447000  1
  C  C35  1  0.37388600  0.85129900  0.35789700  1
  C  C36  1  0.37611400  0.60789700  0.60129900  1
  C  C37  1  0.38447000  0.38447000  0.38447000  1
  C  C38  1  0.39210300  0.10129900  0.12388600  1
  C  C39  1  0.39870100  0.87611400  0.89210300  1
  C  C40  1  0.60129900  0.37611400  0.60789700  1
  C  C41  1  0.60789700  0.60129900  0.37611400  1
  C  C42  1  0.61553000  0.88447000  0.11553000  1
  C  C43  1  0.62388600  0.10789700  0.89870100  1
  C  C44  1  0.62611400  0.35129900  0.14210300  1
  C  C45  1  0.63447000  0.13447000  0.36553000  1
  C  C46  1  0.64210300  0.87388600  0.64870100  1
  C  C47  1  0.64870100  0.64210300  0.87388600  1
  C  C48  1  0.85129900  0.35789700  0.37388600  1
  C  C49  1  0.85789700  0.12611400  0.14870100  1
  C  C50  1  0.86553000  0.86553000  0.86553000  1
  C  C51  1  0.87388600  0.64870100  0.64210300  1
  C  C52  1  0.87611400  0.89210300  0.39870100  1
  C  C53  1  0.88447000  0.11553000  0.61553000  1
  C  C54  1  0.89210300  0.39870100  0.87611400  1
  C  C55  1  0.89870100  0.62388600  0.10789700  1
