# generated using pymatgen
data_Cu(NiC)4
_symmetry_space_group_name_H-M   'P 1'
_cell_length_a   5.13729200
_cell_length_b   13.15328700
_cell_length_c   13.28388369
_cell_angle_alpha   60.10045354
_cell_angle_beta   90.00000000
_cell_angle_gamma   90.00000000
_symmetry_Int_Tables_number   1
_chemical_formula_structural   Cu(NiC)4
_chemical_formula_sum   'Cu8 Ni32 C32'
_cell_volume   778.14935745
_cell_formula_units_Z   8
loop_
 _symmetry_equiv_pos_site_id
 _symmetry_equiv_pos_as_xyz
  1  'x, y, z'
loop_
 _atom_site_type_symbol
 _atom_site_label
 _atom_site_symmetry_multiplicity
 _atom_site_fract_x
 _atom_site_fract_y
 _atom_site_fract_z
 _atom_site_occupancy
  C  C0  1  0.74404100  0.34082400  0.83031000  1
  C  C1  1  0.74391100  0.58124400  0.59122100  1
  C  C2  1  0.24391100  0.41875600  0.90877900  1
  C  C3  1  0.71900800  0.84266300  0.32978200  1
  C  C4  1  0.24404100  0.65917600  0.66969000  1
  C  C5  1  0.26459200  0.91620900  0.16983400  1
  C  C6  1  0.76459200  0.08379100  0.33016600  1
  C  C7  1  0.78099200  0.84266300  0.82978200  1
  C  C8  1  0.21900800  0.15733700  0.17021800  1
  C  C9  1  0.23540800  0.91620900  0.66983400  1
  C  C10  1  0.73540800  0.08379100  0.83016600  1
  C  C11  1  0.75595900  0.34082400  0.33031000  1
  C  C12  1  0.28099200  0.15733700  0.67021800  1
  C  C13  1  0.75608900  0.58124400  0.09122100  1
  C  C14  1  0.25608900  0.41875600  0.40877900  1
  C  C15  1  0.25595900  0.65917600  0.16969000  1
  C  C16  1  0.29143500  0.42481700  0.67449100  1
  C  C17  1  0.79143500  0.57518300  0.82550900  1
  C  C18  1  0.22157800  0.92934100  0.39797000  1
  C  C19  1  0.72157800  0.07065900  0.10203000  1
  C  C20  1  0.27842200  0.92934100  0.89797000  1
  C  C21  1  0.77842200  0.07065900  0.60203000  1
  C  C22  1  0.20856500  0.42481700  0.17449100  1
  C  C23  1  0.70856500  0.57518300  0.32550900  1
  C  C24  1  0.22996100  0.16781900  0.91599400  1
  C  C25  1  0.22033700  0.66743700  0.42089800  1
  C  C26  1  0.27966300  0.66743700  0.92089800  1
  C  C27  1  0.72996100  0.83218100  0.58400600  1
  C  C28  1  0.27003900  0.16781900  0.41599400  1
  C  C29  1  0.72033700  0.33256300  0.07910200  1
  C  C30  1  0.77966300  0.33256300  0.57910200  1
  C  C31  1  0.77003900  0.83218100  0.08400600  1
  Ni  Ni32  1  0.92695800  0.16394000  0.91244000  1
  Ni  Ni33  1  0.66967400  0.39236400  0.64540600  1
  Ni  Ni34  1  0.32937300  0.29636200  0.85118900  1
  Ni  Ni35  1  0.91697200  0.66404600  0.42131700  1
  Ni  Ni36  1  0.32952900  0.60418400  0.54714800  1
  Ni  Ni37  1  0.82952900  0.39581600  0.95285200  1
  Ni  Ni38  1  0.31807300  0.79681300  0.35976500  1
  Ni  Ni39  1  0.64967300  0.89776100  0.14373600  1
  Ni  Ni40  1  0.82937300  0.70363800  0.64881100  1
  Ni  Ni41  1  0.16967400  0.60763600  0.85459400  1
  Ni  Ni42  1  0.58302800  0.66404600  0.92131700  1
  Ni  Ni43  1  0.82979200  0.89016300  0.45630800  1
  Ni  Ni44  1  0.42695800  0.83606000  0.58756000  1
  Ni  Ni45  1  0.32979200  0.10983700  0.04369200  1
  Ni  Ni46  1  0.18192700  0.79681300  0.85976500  1
  Ni  Ni47  1  0.85032700  0.89776100  0.64373600  1
  Ni  Ni48  1  0.14967300  0.10223900  0.35626400  1
  Ni  Ni49  1  0.81807300  0.20318700  0.14023500  1
  Ni  Ni50  1  0.67020800  0.89016300  0.95630800  1
  Ni  Ni51  1  0.57304200  0.16394000  0.41244000  1
  Ni  Ni52  1  0.17020800  0.10983700  0.54369200  1
  Ni  Ni53  1  0.41697200  0.33595400  0.07868300  1
  Ni  Ni54  1  0.83032600  0.39236400  0.14540600  1
  Ni  Ni55  1  0.17062700  0.29636200  0.35118900  1
  Ni  Ni56  1  0.35032700  0.10223900  0.85626400  1
  Ni  Ni57  1  0.68192700  0.20318700  0.64023500  1
  Ni  Ni58  1  0.17047100  0.60418400  0.04714800  1
  Ni  Ni59  1  0.67047100  0.39581600  0.45285200  1
  Ni  Ni60  1  0.08302800  0.33595400  0.57868300  1
  Ni  Ni61  1  0.67062700  0.70363800  0.14881100  1
  Ni  Ni62  1  0.33032600  0.60763600  0.35459400  1
  Ni  Ni63  1  0.07304200  0.83606000  0.08756000  1
  Cu  Cu64  1  0.99338200  0.48210800  0.73064700  1
  Cu  Cu65  1  0.49338200  0.51789200  0.76935300  1
  Cu  Cu66  1  0.00447900  0.98804900  0.22313800  1
  Cu  Cu67  1  0.50447900  0.01195100  0.27686200  1
  Cu  Cu68  1  0.49552100  0.98804900  0.72313800  1
  Cu  Cu69  1  0.99552100  0.01195100  0.77686200  1
  Cu  Cu70  1  0.50661800  0.48210800  0.23064700  1
  Cu  Cu71  1  0.00661800  0.51789200  0.26935300  1
