# generated using pymatgen
data_Cu11Ni3C2
_symmetry_space_group_name_H-M   'P 1'
_cell_length_a   10.72069000
_cell_length_b   8.68111800
_cell_length_c   11.99144829
_cell_angle_alpha   53.63905009
_cell_angle_beta   90.00000000
_cell_angle_gamma   90.00000000
_symmetry_Int_Tables_number   1
_chemical_formula_structural   Cu11Ni3C2
_chemical_formula_sum   'Cu44 Ni12 C8'
_cell_volume   898.72472016
_cell_formula_units_Z   4
loop_
 _symmetry_equiv_pos_site_id
 _symmetry_equiv_pos_as_xyz
  1  'x, y, z'
loop_
 _atom_site_type_symbol
 _atom_site_label
 _atom_site_symmetry_multiplicity
 _atom_site_fract_x
 _atom_site_fract_y
 _atom_site_fract_z
 _atom_site_occupancy
  C  C0  1  0.17231800  0.24161900  0.77353600  1
  C  C1  1  0.67231800  0.75838100  0.72646400  1
  C  C2  1  0.32768200  0.24161900  0.27353600  1
  C  C3  1  0.82768200  0.75838100  0.22646400  1
  C  C4  1  0.42319000  0.73456100  0.32909900  1
  C  C5  1  0.92319000  0.26543900  0.17090100  1
  C  C6  1  0.07681000  0.73456100  0.82909900  1
  C  C7  1  0.57681000  0.26543900  0.67090100  1
  Ni  Ni8  1  0.68976300  0.23237600  0.91649400  1
  Ni  Ni9  1  0.44012800  0.35386800  0.92378500  1
  Ni  Ni10  1  0.94012800  0.64613200  0.57621500  1
  Ni  Ni11  1  0.56084600  0.84815500  0.39213700  1
  Ni  Ni12  1  0.06084600  0.15184500  0.10786300  1
  Ni  Ni13  1  0.18976300  0.76762400  0.58350600  1
  Ni  Ni14  1  0.81023700  0.23237600  0.41649400  1
  Ni  Ni15  1  0.93915400  0.84815500  0.89213700  1
  Ni  Ni16  1  0.43915400  0.15184500  0.60786300  1
  Ni  Ni17  1  0.05987200  0.35386800  0.42378500  1
  Ni  Ni18  1  0.55987200  0.64613200  0.07621500  1
  Ni  Ni19  1  0.31023700  0.76762400  0.08350600  1
  Cu  Cu20  1  0.65118200  0.18915400  0.82195700  1
  Cu  Cu21  1  0.36821900  0.25587600  0.88012100  1
  Cu  Cu22  1  0.09819000  0.22467200  0.96730100  1
  Cu  Cu23  1  0.98590600  0.45940500  0.69146800  1
  Cu  Cu24  1  0.88201800  0.64767000  0.46611800  1
  Cu  Cu25  1  0.46303000  0.69703500  0.41758400  1
  Cu  Cu26  1  0.23635000  0.57276800  0.65025100  1
  Cu  Cu27  1  0.66408900  0.85101600  0.31117300  1
  Cu  Cu28  1  0.00058500  0.96364600  0.18338600  1
  Cu  Cu29  1  0.76957700  0.09084300  0.02912200  1
  Cu  Cu30  1  0.73635000  0.42723200  0.84974900  1
  Cu  Cu31  1  0.06349800  0.78263800  0.49628400  1
  Cu  Cu32  1  0.48590600  0.54059500  0.80853200  1
  Cu  Cu33  1  0.59819000  0.77532800  0.53269900  1
  Cu  Cu34  1  0.56349800  0.21736200  0.00371600  1
  Cu  Cu35  1  0.86821900  0.74412400  0.61987900  1
  Cu  Cu36  1  0.26957700  0.90915700  0.47087800  1
  Cu  Cu37  1  0.50058500  0.03635400  0.31661400  1
  Cu  Cu38  1  0.16408900  0.14898400  0.18882700  1
  Cu  Cu39  1  0.15118200  0.81084600  0.67804300  1
  Cu  Cu40  1  0.96303000  0.30296500  0.08241600  1
  Cu  Cu41  1  0.38201800  0.35233000  0.03388200  1
  Cu  Cu42  1  0.61798200  0.64767000  0.96611800  1
  Cu  Cu43  1  0.03697000  0.69703500  0.91758400  1
  Cu  Cu44  1  0.84881800  0.18915400  0.32195700  1
  Cu  Cu45  1  0.83591100  0.85101600  0.81117300  1
  Cu  Cu46  1  0.49941500  0.96364600  0.68338600  1
  Cu  Cu47  1  0.73042300  0.09084300  0.52912200  1
  Cu  Cu48  1  0.13178100  0.25587600  0.38012100  1
  Cu  Cu49  1  0.43650200  0.78263800  0.99628400  1
  Cu  Cu50  1  0.40181000  0.22467200  0.46730100  1
  Cu  Cu51  1  0.51409400  0.45940500  0.19146800  1
  Cu  Cu52  1  0.93650200  0.21736200  0.50371600  1
  Cu  Cu53  1  0.26365000  0.57276800  0.15025100  1
  Cu  Cu54  1  0.23042300  0.90915700  0.97087800  1
  Cu  Cu55  1  0.99941500  0.03635400  0.81661400  1
  Cu  Cu56  1  0.33591100  0.14898400  0.68882700  1
  Cu  Cu57  1  0.76365000  0.42723200  0.34974900  1
  Cu  Cu58  1  0.53697000  0.30296500  0.58241600  1
  Cu  Cu59  1  0.11798200  0.35233000  0.53388200  1
  Cu  Cu60  1  0.01409400  0.54059500  0.30853200  1
  Cu  Cu61  1  0.90181000  0.77532800  0.03269900  1
  Cu  Cu62  1  0.63178100  0.74412400  0.11987900  1
  Cu  Cu63  1  0.34881800  0.81084600  0.17804300  1
