# generated using pymatgen
data_Cu3NiC3
_symmetry_space_group_name_H-M   'P 1'
_cell_length_a   6.18579200
_cell_length_b   6.26786100
_cell_length_c   8.56716200
_cell_angle_alpha   90.00000000
_cell_angle_beta   90.00000000
_cell_angle_gamma   90.00000000
_symmetry_Int_Tables_number   1
_chemical_formula_structural   Cu3NiC3
_chemical_formula_sum   'Cu12 Ni4 C12'
_cell_volume   332.16330153
_cell_formula_units_Z   4
loop_
 _symmetry_equiv_pos_site_id
 _symmetry_equiv_pos_as_xyz
  1  'x, y, z'
loop_
 _atom_site_type_symbol
 _atom_site_label
 _atom_site_symmetry_multiplicity
 _atom_site_fract_x
 _atom_site_fract_y
 _atom_site_fract_z
 _atom_site_occupancy
  C  C0  1  0.25689700  0.50000000  0.00000000  1
  C  C1  1  0.50000000  0.23884300  0.75000000  1
  C  C2  1  0.50000000  0.76115700  0.25000000  1
  C  C3  1  0.74310300  0.50000000  0.50000000  1
  C  C4  1  0.00000000  0.24178600  0.75000000  1
  C  C5  1  0.00000000  0.75821400  0.25000000  1
  C  C6  1  0.26111400  0.22528600  0.35785200  1
  C  C7  1  0.26111400  0.77471400  0.64214800  1
  C  C8  1  0.25848500  0.00000000  0.00000000  1
  C  C9  1  0.74151500  0.00000000  0.50000000  1
  C  C10  1  0.73888600  0.22528600  0.14214800  1
  C  C11  1  0.73888600  0.77471400  0.85785200  1
  Ni  Ni12  1  0.24991800  0.02695300  0.76893800  1
  Ni  Ni13  1  0.24991800  0.97304700  0.23106200  1
  Ni  Ni14  1  0.75008200  0.97304700  0.26893800  1
  Ni  Ni15  1  0.75008200  0.02695300  0.73106200  1
  Cu  Cu16  1  0.01709500  0.27135100  0.00617700  1
  Cu  Cu17  1  0.01709500  0.72864900  0.99382300  1
  Cu  Cu18  1  0.24603600  0.51581700  0.24193000  1
  Cu  Cu19  1  0.24603600  0.48418300  0.75807000  1
  Cu  Cu20  1  0.49174200  0.27224900  0.99338300  1
  Cu  Cu21  1  0.49174200  0.72775100  0.00661700  1
  Cu  Cu22  1  0.50825800  0.27224900  0.50661700  1
  Cu  Cu23  1  0.50825800  0.72775100  0.49338300  1
  Cu  Cu24  1  0.75396400  0.51581700  0.25807000  1
  Cu  Cu25  1  0.75396400  0.48418300  0.74193000  1
  Cu  Cu26  1  0.98290500  0.27135100  0.49382300  1
  Cu  Cu27  1  0.98290500  0.72864900  0.50617700  1
