# generated using pymatgen
data_CuNiC14
_symmetry_space_group_name_H-M   'P 1'
_cell_length_a   14.70869138
_cell_length_b   5.34913859
_cell_length_c   7.42303941
_cell_angle_alpha   109.11994037
_cell_angle_beta   84.17599088
_cell_angle_gamma   87.11403940
_symmetry_Int_Tables_number   1
_chemical_formula_structural   CuNiC14
_chemical_formula_sum   'Cu3 Ni3 C42'
_cell_volume   546.79453106
_cell_formula_units_Z   3
loop_
 _symmetry_equiv_pos_site_id
 _symmetry_equiv_pos_as_xyz
  1  'x, y, z'
loop_
 _atom_site_type_symbol
 _atom_site_label
 _atom_site_symmetry_multiplicity
 _atom_site_fract_x
 _atom_site_fract_y
 _atom_site_fract_z
 _atom_site_occupancy
  C  C0  1  0.02683000  0.40131500  0.78597800  1
  C  C1  1  0.30756000  0.26669600  0.88024200  1
  C  C2  1  0.36015400  0.06799300  0.45148500  1
  C  C3  1  0.63851300  0.93256100  0.54946300  1
  C  C4  1  0.69360700  0.73335500  0.11758900  1
  C  C5  1  0.97274900  0.59795900  0.21534600  1
  Ni  Ni6  1  0.33447800  0.66799100  0.66808300  1
  Ni  Ni7  1  0.49793000  0.99893600  0.99997900  1
  Ni  Ni8  1  0.83365600  0.66680600  0.66689500  1
  Cu  Cu9  1  0.00089800  0.99949100  0.00257100  1
  Cu  Cu10  1  0.16679500  0.33128600  0.33252000  1
  Cu  Cu11  1  0.66583300  0.33354100  0.33348500  1
  C  C12  1  0.14810600  0.97207400  0.61358700  1
  C  C13  1  0.18600200  0.69274800  0.04975800  1
  C  C14  1  0.51878400  0.36174700  0.72121800  1
  C  C15  1  0.48052600  0.63747000  0.28033300  1
  C  C16  1  0.81399000  0.30414700  0.94771400  1
  C  C17  1  0.85285300  0.02961900  0.38781700  1
  C  C18  1  0.09307800  0.06436400  0.81946400  1
  C  C19  1  0.12067000  0.70272700  0.48963600  1
  C  C20  1  0.11691600  0.19902300  0.53677400  1
  C  C21  1  0.08002400  0.69958100  0.03533700  1
  C  C22  1  0.23774400  0.59628900  0.84395200  1
  C  C23  1  0.25247800  0.97234900  0.62997200  1
  C  C24  1  0.21226000  0.96261900  0.17415900  1
  C  C25  1  0.21519000  0.46778900  0.12905400  1
  C  C26  1  0.41427600  0.36132900  0.69987100  1
  C  C27  1  0.42718300  0.73456000  0.48607800  1
  C  C28  1  0.45163100  0.86913300  0.20805100  1
  C  C29  1  0.54590200  0.63215400  0.84343400  1
  C  C30  1  0.45343800  0.36819500  0.15785200  1
  C  C31  1  0.55020500  0.13224900  0.79249800  1
  C  C32  1  0.57424800  0.27400400  0.51448900  1
  C  C33  1  0.58638500  0.63068800  0.29744200  1
  C  C34  1  0.78414500  0.53458200  0.87669900  1
  C  C35  1  0.78698900  0.03607600  0.82394700  1
  C  C36  1  0.74783600  0.03456600  0.36815700  1
  C  C37  1  0.75937900  0.39473100  0.15462100  1
  C  C38  1  0.91945200  0.29919500  0.96820300  1
  C  C39  1  0.88356300  0.79794200  0.45707600  1
  C  C40  1  0.88090000  0.29784100  0.50953700  1
  C  C41  1  0.90764200  0.93802800  0.18051800  1
  C  C42  1  0.04747400  0.28666500  0.21696100  1
  C  C43  1  0.37316400  0.96863800  0.89215100  1
  C  C44  1  0.28330200  0.36309100  0.43430800  1
  C  C45  1  0.70530200  0.61422400  0.54292000  1
  C  C46  1  0.62830500  0.05307000  0.12312600  1
  C  C47  1  0.96165500  0.71856300  0.78964900  1
