# generated using pymatgen
data_CuNi3C10
_symmetry_space_group_name_H-M   'P 1'
_cell_length_a   8.46114500
_cell_length_b   8.35828200
_cell_length_c   8.47752979
_cell_angle_alpha   89.62374901
_cell_angle_beta   90.00000000
_cell_angle_gamma   90.00000000
_symmetry_Int_Tables_number   1
_chemical_formula_structural   CuNi3C10
_chemical_formula_sum   'Cu4 Ni12 C40'
_cell_volume   599.52337103
_cell_formula_units_Z   4
loop_
 _symmetry_equiv_pos_site_id
 _symmetry_equiv_pos_as_xyz
  1  'x, y, z'
loop_
 _atom_site_type_symbol
 _atom_site_label
 _atom_site_symmetry_multiplicity
 _atom_site_fract_x
 _atom_site_fract_y
 _atom_site_fract_z
 _atom_site_occupancy
  C  C0  1  0.00443400  0.25511100  0.49826500  1
  C  C1  1  0.24760300  0.49728400  0.25406600  1
  C  C2  1  0.75777000  0.99497800  0.24378100  1
  C  C3  1  0.99763700  0.75538800  0.00514700  1
  C  C4  1  0.49763700  0.24461200  0.99485300  1
  C  C5  1  0.25777000  0.00502200  0.75621900  1
  C  C6  1  0.74760300  0.50271600  0.74593400  1
  C  C7  1  0.50443400  0.74488900  0.50173500  1
  Ni  Ni8  1  0.12802900  0.87863700  0.37862400  1
  Ni  Ni9  1  0.38083400  0.11817100  0.37591700  1
  Ni  Ni10  1  0.62147300  0.37303700  0.37065000  1
  Ni  Ni11  1  0.37301100  0.87179100  0.12831400  1
  Ni  Ni12  1  0.62650000  0.62255600  0.12213200  1
  Ni  Ni13  1  0.86969300  0.37594700  0.12196300  1
  Ni  Ni14  1  0.36969300  0.62405300  0.87803700  1
  Ni  Ni15  1  0.12650000  0.37744400  0.87786800  1
  Ni  Ni16  1  0.87301100  0.12820900  0.87168600  1
  Ni  Ni17  1  0.12147300  0.62696300  0.62935000  1
  Ni  Ni18  1  0.88083400  0.88182900  0.62408300  1
  Ni  Ni19  1  0.62802900  0.12136300  0.62137600  1
  Cu  Cu20  1  0.87520200  0.62445000  0.37399300  1
  Cu  Cu21  1  0.12425600  0.12514200  0.12300800  1
  Cu  Cu22  1  0.62425600  0.87485800  0.87699200  1
  Cu  Cu23  1  0.37520200  0.37555000  0.62600700  1
  C  C24  1  0.11497600  0.64421800  0.39129700  1
  C  C25  1  0.89272000  0.86468500  0.38924500  1
  C  C26  1  0.61933100  0.13327500  0.38418500  1
  C  C27  1  0.13778900  0.10592300  0.36446300  1
  C  C28  1  0.39717400  0.36661300  0.38602200  1
  C  C29  1  0.36134000  0.87470200  0.36288600  1
  C  C30  1  0.63696700  0.61067500  0.35876600  1
  C  C31  1  0.85073000  0.38205300  0.36101500  1
  C  C32  1  0.13975900  0.88275900  0.14345600  1
  C  C33  1  0.36716700  0.09993200  0.13481100  1
  C  C34  1  0.62117800  0.39283800  0.13373100  1
  C  C35  1  0.61174600  0.85458600  0.11619600  1
  C  C36  1  0.85709900  0.61663900  0.13529700  1
  C  C37  1  0.38392200  0.64139600  0.11633700  1
  C  C38  1  0.11397600  0.36645200  0.11037200  1
  C  C39  1  0.88842300  0.13787800  0.10694800  1
  C  C40  1  0.38842300  0.86212200  0.89305200  1
  C  C41  1  0.61397600  0.63354800  0.88962800  1
  C  C42  1  0.88392200  0.35860400  0.88366300  1
  C  C43  1  0.35709900  0.38336100  0.86470300  1
  C  C44  1  0.11174600  0.14541400  0.88380400  1
  C  C45  1  0.12117800  0.60716200  0.86626900  1
  C  C46  1  0.86716700  0.90006800  0.86518900  1
  C  C47  1  0.63975900  0.11724100  0.85654400  1
  C  C48  1  0.35073000  0.61794700  0.63898500  1
  C  C49  1  0.13696700  0.38932500  0.64123400  1
  C  C50  1  0.86134000  0.12529800  0.63711400  1
  C  C51  1  0.89717400  0.63338700  0.61397800  1
  C  C52  1  0.63778900  0.89407700  0.63553700  1
  C  C53  1  0.11933100  0.86672500  0.61581500  1
  C  C54  1  0.39272000  0.13531500  0.61075500  1
  C  C55  1  0.61497600  0.35578200  0.60870300  1
