# generated using pymatgen
data_CuNiC19
_symmetry_space_group_name_H-M   'P 1'
_cell_length_a   7.14837300
_cell_length_b   8.15984788
_cell_length_c   18.05912818
_cell_angle_alpha   88.38771613
_cell_angle_beta   89.63475578
_cell_angle_gamma   88.78424661
_symmetry_Int_Tables_number   1
_chemical_formula_structural   CuNiC19
_chemical_formula_sum   'Cu4 Ni4 C76'
_cell_volume   1052.71072225
_cell_formula_units_Z   4
loop_
 _symmetry_equiv_pos_site_id
 _symmetry_equiv_pos_as_xyz
  1  'x, y, z'
loop_
 _atom_site_type_symbol
 _atom_site_label
 _atom_site_symmetry_multiplicity
 _atom_site_fract_x
 _atom_site_fract_y
 _atom_site_fract_z
 _atom_site_occupancy
  C  C0  1  0.20350300  0.86351900  0.12415800  1
  C  C1  1  0.95333100  0.86350100  0.37433000  1
  C  C2  1  0.70247300  0.86417600  0.62491500  1
  C  C3  1  0.79904700  0.35780100  0.87383700  1
  Ni  Ni4  1  0.60365900  0.00713900  0.12876700  1
  Ni  Ni5  1  0.35454600  0.00668800  0.37907600  1
  Ni  Ni6  1  0.10510600  0.00743000  0.62973200  1
  Ni  Ni7  1  0.84420000  0.99266700  0.87803400  1
  Cu  Cu8  1  0.16002700  0.49491000  0.12232900  1
  Cu  Cu9  1  0.90860500  0.49361800  0.37169800  1
  Cu  Cu10  1  0.65845200  0.49551800  0.62134400  1
  Cu  Cu11  1  0.40296500  0.50615500  0.87181200  1
  C  C12  1  0.87661900  0.78022400  0.03224900  1
  C  C13  1  0.48517100  0.67828600  0.02959600  1
  C  C14  1  0.86746500  0.28700400  0.21775400  1
  C  C15  1  0.25823700  0.17610200  0.22085500  1
  C  C16  1  0.62686000  0.78165400  0.28163200  1
  C  C17  1  0.23605700  0.67889900  0.27995300  1
  C  C18  1  0.61737700  0.28638300  0.46815700  1
  C  C19  1  0.98548600  0.67973100  0.52973900  1
  C  C20  1  0.00794300  0.17594800  0.47099200  1
  C  C21  1  0.37607800  0.78191400  0.53166800  1
  C  C22  1  0.75690200  0.17768300  0.72060500  1
  C  C23  1  0.36801500  0.28853900  0.71891300  1
  C  C24  1  0.73800900  0.68310000  0.77874700  1
  C  C25  1  0.12798000  0.78235800  0.78202500  1
  C  C26  1  0.51154800  0.17468600  0.97020900  1
  C  C27  1  0.12223100  0.28802400  0.96846700  1
  C  C28  1  0.70821100  0.65160200  0.03940500  1
  C  C29  1  0.83646300  0.93246200  0.07777800  1
  C  C30  1  0.55592200  0.17463200  0.05259200  1
  C  C31  1  0.42909500  0.84377400  0.05927000  1
  C  C32  1  0.39814200  0.53520800  0.07375700  1
  C  C33  1  0.92782600  0.43950800  0.17117300  1
  C  C34  1  0.10668400  0.33290500  0.05058500  1
  C  C35  1  0.04768100  0.68603200  0.06434600  1
  C  C36  1  0.69707500  0.20247300  0.19306500  1
  C  C37  1  0.65652200  0.82607100  0.19973400  1
  C  C38  1  0.34241700  0.03845100  0.17442200  1
  C  C39  1  0.29704400  0.34780000  0.18751900  1
  C  C40  1  0.19905600  0.67214500  0.19556300  1
  C  C41  1  0.85485700  0.33579100  0.29993000  1
  C  C42  1  0.79863600  0.68713300  0.31300800  1
  C  C43  1  0.03553500  0.14986900  0.21336900  1
  C  C44  1  0.45930100  0.65251800  0.28948700  1
  C  C45  1  0.58709800  0.93273400  0.32805300  1
  C  C46  1  0.30892400  0.17261500  0.30242100  1
  C  C47  1  0.18015800  0.84413300  0.31043400  1
  C  C48  1  0.14871700  0.53488800  0.32271800  1
  C  C49  1  0.94875100  0.67188800  0.44540300  1
  C  C50  1  0.67745300  0.43926300  0.42162500  1
  C  C51  1  0.78566400  0.14912500  0.46304000  1
  C  C52  1  0.44722000  0.20210900  0.44291100  1
  C  C53  1  0.40627000  0.82589600  0.44978700  1
  C  C54  1  0.09298600  0.03858300  0.42460000  1
  C  C55  1  0.93009200  0.84483200  0.56059400  1
  C  C56  1  0.04641100  0.34760700  0.43734800  1
  C  C57  1  0.89724600  0.53645500  0.57268500  1
  C  C58  1  0.60565300  0.33348700  0.55035100  1
  C  C59  1  0.54770400  0.68757500  0.56297900  1
  C  C60  1  0.20860400  0.65266400  0.53965600  1
  C  C61  1  0.33645500  0.93309500  0.57797900  1
  C  C62  1  0.05846500  0.17228000  0.55264300  1
  C  C63  1  0.84322900  0.03870700  0.67585500  1
  C  C64  1  0.79656700  0.34843300  0.68707500  1
  C  C65  1  0.69737500  0.67166500  0.69486200  1
  C  C66  1  0.42906400  0.43875400  0.67112200  1
  C  C67  1  0.53517400  0.15035300  0.71412900  1
  C  C68  1  0.96118300  0.65017400  0.78814900  1
  C  C69  1  0.19670100  0.20410100  0.69428100  1
  C  C70  1  0.80779600  0.17698600  0.80289600  1
  C  C71  1  0.15797200  0.82891900  0.70019000  1
  C  C72  1  0.68544400  0.84846500  0.80725900  1
  C  C73  1  0.65675800  0.53747800  0.82403300  1
  C  C74  1  0.35703300  0.34251300  0.80034800  1
  C  C75  1  0.29797100  0.68308100  0.80988400  1
  C  C76  1  0.94738600  0.21039800  0.94074000  1
  C  C77  1  0.90999300  0.81998800  0.95043400  1
  C  C78  1  0.07734900  0.93134900  0.82812900  1
  C  C79  1  0.60338900  0.03793300  0.92672100  1
  C  C80  1  0.55217100  0.34457600  0.93385300  1
  C  C81  1  0.44817100  0.66210500  0.94596700  1
  C  C82  1  0.17128800  0.44183100  0.92078700  1
  C  C83  1  0.28783000  0.15145500  0.96214900  1
