# generated using pymatgen
data_Cu8Ni2C3
_symmetry_space_group_name_H-M   'P 1'
_cell_length_a   9.29578400
_cell_length_b   9.40146300
_cell_length_c   13.85871800
_cell_angle_alpha   90.00000000
_cell_angle_beta   90.00000000
_cell_angle_gamma   90.00000000
_symmetry_Int_Tables_number   1
_chemical_formula_structural   Cu8Ni2C3
_chemical_formula_sum   'Cu64 Ni16 C24'
_cell_volume   1211.16837587
_cell_formula_units_Z   8
loop_
 _symmetry_equiv_pos_site_id
 _symmetry_equiv_pos_as_xyz
  1  'x, y, z'
loop_
 _atom_site_type_symbol
 _atom_site_label
 _atom_site_symmetry_multiplicity
 _atom_site_fract_x
 _atom_site_fract_y
 _atom_site_fract_z
 _atom_site_occupancy
  C  C0  1  0.77979200  0.96633600  0.37396300  1
  C  C1  1  0.72020800  0.96633600  0.87396300  1
  C  C2  1  0.04549100  0.77547300  0.37268500  1
  C  C3  1  0.45450900  0.77547300  0.87268500  1
  C  C4  1  0.95450900  0.72452700  0.87268500  1
  C  C5  1  0.54549100  0.72452700  0.37268500  1
  C  C6  1  0.27979200  0.53366400  0.37396300  1
  C  C7  1  0.22020800  0.53366400  0.87396300  1
  C  C8  1  0.77979200  0.46633600  0.12603700  1
  C  C9  1  0.72020800  0.46633600  0.62603700  1
  C  C10  1  0.45450900  0.27547300  0.62731500  1
  C  C11  1  0.04549100  0.27547300  0.12731500  1
  C  C12  1  0.54549100  0.22452700  0.12731500  1
  C  C13  1  0.95450900  0.22452700  0.62731500  1
  C  C14  1  0.22020800  0.03366400  0.62603700  1
  C  C15  1  0.27979200  0.03366400  0.12603700  1
  C  C16  1  0.89691600  0.86067700  0.12345200  1
  C  C17  1  0.60308400  0.86067700  0.62345200  1
  C  C18  1  0.39691600  0.63932300  0.12345200  1
  C  C19  1  0.10308400  0.63932300  0.62345200  1
  C  C20  1  0.89691600  0.36067700  0.37654800  1
  C  C21  1  0.60308400  0.36067700  0.87654800  1
  C  C22  1  0.39691600  0.13932300  0.37654800  1
  C  C23  1  0.10308400  0.13932300  0.87654800  1
  Ni  Ni24  1  0.93019200  0.92578300  0.72754200  1
  Ni  Ni25  1  0.56980800  0.92578300  0.22754200  1
  Ni  Ni26  1  0.31245600  0.83920700  0.49067700  1
  Ni  Ni27  1  0.18754400  0.83920700  0.99067700  1
  Ni  Ni28  1  0.81245600  0.66079300  0.49067700  1
  Ni  Ni29  1  0.68754400  0.66079300  0.99067700  1
  Ni  Ni30  1  0.06980800  0.57421700  0.22754200  1
  Ni  Ni31  1  0.43019200  0.57421700  0.72754200  1
  Ni  Ni32  1  0.56980800  0.42578300  0.27245800  1
  Ni  Ni33  1  0.93019200  0.42578300  0.77245800  1
  Ni  Ni34  1  0.31245600  0.33920700  0.00932300  1
  Ni  Ni35  1  0.18754400  0.33920700  0.50932300  1
  Ni  Ni36  1  0.81245600  0.16079300  0.00932300  1
  Ni  Ni37  1  0.68754400  0.16079300  0.50932300  1
  Ni  Ni38  1  0.43019200  0.07421700  0.77245800  1
  Ni  Ni39  1  0.06980800  0.07421700  0.27245800  1
  Cu  Cu40  1  0.29978100  0.99595100  0.47655600  1
  Cu  Cu41  1  0.20021900  0.99595100  0.97655600  1
  Cu  Cu42  1  0.00242700  0.98227400  0.34613000  1
  Cu  Cu43  1  0.49757300  0.98227400  0.84613000  1
  Cu  Cu44  1  0.53784900  0.97465600  0.32881400  1
  Cu  Cu45  1  0.96215100  0.97465600  0.82881400  1
  Cu  Cu46  1  0.76947700  0.92753600  0.72180200  1
  Cu  Cu47  1  0.73052300  0.92753600  0.22180200  1
  Cu  Cu48  1  0.26857300  0.81212900  0.08195900  1
  Cu  Cu49  1  0.23142700  0.81212900  0.58195900  1
  Cu  Cu50  1  0.03402700  0.79519900  0.00325900  1
  Cu  Cu51  1  0.46597300  0.79519900  0.50325900  1
  Cu  Cu52  1  0.98570500  0.77686900  0.72152200  1
  Cu  Cu53  1  0.51429500  0.77686900  0.22152200  1
  Cu  Cu54  1  0.25505700  0.75835400  0.40712500  1
  Cu  Cu55  1  0.24494300  0.75835400  0.90712500  1
  Cu  Cu56  1  0.75505700  0.74164600  0.40712500  1
  Cu  Cu57  1  0.74494300  0.74164600  0.90712500  1
  Cu  Cu58  1  0.01429500  0.72313100  0.22152200  1
  Cu  Cu59  1  0.48570500  0.72313100  0.72152200  1
  Cu  Cu60  1  0.96597300  0.70480100  0.50325900  1
  Cu  Cu61  1  0.53402700  0.70480100  0.00325900  1
  Cu  Cu62  1  0.76857300  0.68787100  0.08195900  1
  Cu  Cu63  1  0.73142700  0.68787100  0.58195900  1
  Cu  Cu64  1  0.23052300  0.57246400  0.22180200  1
  Cu  Cu65  1  0.26947700  0.57246400  0.72180200  1
  Cu  Cu66  1  0.46215100  0.52534400  0.82881400  1
  Cu  Cu67  1  0.03784900  0.52534400  0.32881400  1
  Cu  Cu68  1  0.50242700  0.51772600  0.34613000  1
  Cu  Cu69  1  0.99757300  0.51772600  0.84613000  1
  Cu  Cu70  1  0.79978100  0.50404900  0.47655600  1
  Cu  Cu71  1  0.70021900  0.50404900  0.97655600  1
  Cu  Cu72  1  0.29978100  0.49595100  0.02344400  1
  Cu  Cu73  1  0.20021900  0.49595100  0.52344400  1
  Cu  Cu74  1  0.49757300  0.48227400  0.65387000  1
  Cu  Cu75  1  0.00242700  0.48227400  0.15387000  1
  Cu  Cu76  1  0.53784900  0.47465600  0.17118600  1
  Cu  Cu77  1  0.96215100  0.47465600  0.67118600  1
  Cu  Cu78  1  0.73052300  0.42753600  0.27819800  1
  Cu  Cu79  1  0.76947700  0.42753600  0.77819800  1
  Cu  Cu80  1  0.26857300  0.31212900  0.41804100  1
  Cu  Cu81  1  0.23142700  0.31212900  0.91804100  1
  Cu  Cu82  1  0.46597300  0.29519900  0.99674100  1
  Cu  Cu83  1  0.03402700  0.29519900  0.49674100  1
  Cu  Cu84  1  0.51429500  0.27686900  0.27847800  1
  Cu  Cu85  1  0.98570500  0.27686900  0.77847800  1
  Cu  Cu86  1  0.25505700  0.25835400  0.09287500  1
  Cu  Cu87  1  0.24494300  0.25835400  0.59287500  1
  Cu  Cu88  1  0.75505700  0.24164600  0.09287500  1
  Cu  Cu89  1  0.74494300  0.24164600  0.59287500  1
  Cu  Cu90  1  0.48570500  0.22313100  0.77847800  1
  Cu  Cu91  1  0.01429500  0.22313100  0.27847800  1
  Cu  Cu92  1  0.53402700  0.20480100  0.49674100  1
  Cu  Cu93  1  0.96597300  0.20480100  0.99674100  1
  Cu  Cu94  1  0.76857300  0.18787100  0.41804100  1
  Cu  Cu95  1  0.73142700  0.18787100  0.91804100  1
  Cu  Cu96  1  0.26947700  0.07246400  0.77819800  1
  Cu  Cu97  1  0.23052300  0.07246400  0.27819800  1
  Cu  Cu98  1  0.46215100  0.02534400  0.67118600  1
  Cu  Cu99  1  0.03784900  0.02534400  0.17118600  1
  Cu  Cu100  1  0.99757300  0.01772600  0.65387000  1
  Cu  Cu101  1  0.50242700  0.01772600  0.15387000  1
  Cu  Cu102  1  0.79978100  0.00404900  0.02344400  1
  Cu  Cu103  1  0.70021900  0.00404900  0.52344400  1
