# generated using pymatgen
data_CuNiC
_symmetry_space_group_name_H-M   'P 1'
_cell_length_a   9.50637166
_cell_length_b   14.34589473
_cell_length_c   3.09677400
_cell_angle_alpha   90.00000000
_cell_angle_beta   90.00000000
_cell_angle_gamma   90.67531202
_symmetry_Int_Tables_number   1
_chemical_formula_structural   CuNiC
_chemical_formula_sum   'Cu12 Ni12 C12'
_cell_volume   422.30067410
_cell_formula_units_Z   12
loop_
 _symmetry_equiv_pos_site_id
 _symmetry_equiv_pos_as_xyz
  1  'x, y, z'
loop_
 _atom_site_type_symbol
 _atom_site_label
 _atom_site_symmetry_multiplicity
 _atom_site_fract_x
 _atom_site_fract_y
 _atom_site_fract_z
 _atom_site_occupancy
  C  C0  1  0.02095700  0.00039200  0.00000000  1
  C  C1  1  0.00969300  0.33815100  0.00000000  1
  C  C2  1  0.01893200  0.66620300  0.00000000  1
  C  C3  1  0.26089800  0.14468300  0.50000000  1
  C  C4  1  0.22909200  0.49932900  0.50000000  1
  C  C5  1  0.22854200  0.83357300  0.50000000  1
  C  C6  1  0.51957700  0.33036200  0.00000000  1
  C  C7  1  0.51002300  0.00361300  0.00000000  1
  C  C8  1  0.52089000  0.66960100  0.00000000  1
  C  C9  1  0.72892000  0.16396800  0.50000000  1
  C  C10  1  0.72193600  0.50220800  0.50000000  1
  C  C11  1  0.72423000  0.83935600  0.50000000  1
  Ni  Ni12  1  0.09646800  0.59921000  0.50000000  1
  Ni  Ni13  1  0.09742400  0.93652100  0.50000000  1
  Ni  Ni14  1  0.15161000  0.10546200  0.00000000  1
  Ni  Ni15  1  0.15202100  0.76804000  0.00000000  1
  Ni  Ni16  1  0.14842600  0.43080600  0.00000000  1
  Ni  Ni17  1  0.40815400  0.06213700  0.50000000  1
  Ni  Ni18  1  0.59907800  0.26954400  0.50000000  1
  Ni  Ni19  1  0.59636200  0.93657300  0.50000000  1
  Ni  Ni20  1  0.59313600  0.60386000  0.50000000  1
  Ni  Ni21  1  0.66009900  0.10340800  0.00000000  1
  Ni  Ni22  1  0.65339600  0.43529600  0.00000000  1
  Ni  Ni23  1  0.65320100  0.77066800  0.00000000  1
  Cu  Cu24  1  0.09440100  0.27006400  0.50000000  1
  Cu  Cu25  1  0.34609400  0.23565600  0.00000000  1
  Cu  Cu26  1  0.34313700  0.56210600  0.00000000  1
  Cu  Cu27  1  0.34487700  0.89335100  0.00000000  1
  Cu  Cu28  1  0.40051100  0.39977700  0.50000000  1
  Cu  Cu29  1  0.40108500  0.73029300  0.50000000  1
  Cu  Cu30  1  0.85757500  0.23757600  0.00000000  1
  Cu  Cu31  1  0.84874000  0.90048700  0.00000000  1
  Cu  Cu32  1  0.84691700  0.56386900  0.00000000  1
  Cu  Cu33  1  0.90496800  0.06750400  0.50000000  1
  Cu  Cu34  1  0.90373000  0.39744100  0.50000000  1
  Cu  Cu35  1  0.90490000  0.72891300  0.50000000  1
