# generated using pymatgen
data_Cu4NiC4
_symmetry_space_group_name_H-M   'P 1'
_cell_length_a   7.60316847
_cell_length_b   7.60316847
_cell_length_c   12.76868700
_cell_angle_alpha   90.00000000
_cell_angle_beta   90.00000000
_cell_angle_gamma   91.90768385
_symmetry_Int_Tables_number   1
_chemical_formula_structural   Cu4NiC4
_chemical_formula_sum   'Cu32 Ni8 C32'
_cell_volume   737.72533575
_cell_formula_units_Z   8
loop_
 _symmetry_equiv_pos_site_id
 _symmetry_equiv_pos_as_xyz
  1  'x, y, z'
loop_
 _atom_site_type_symbol
 _atom_site_label
 _atom_site_symmetry_multiplicity
 _atom_site_fract_x
 _atom_site_fract_y
 _atom_site_fract_z
 _atom_site_occupancy
  Ni  Ni0  1  0.53350900  0.46649100  0.65027200  1
  Ni  Ni1  1  0.46649100  0.53350900  0.34972800  1
  Ni  Ni2  1  0.96649100  0.03350900  0.15027200  1
  Ni  Ni3  1  0.03350900  0.96649100  0.84972800  1
  Ni  Ni4  1  0.28873300  0.28873300  0.50000000  1
  Ni  Ni5  1  0.78873300  0.78873300  0.00000000  1
  Ni  Ni6  1  0.71126700  0.71126700  0.50000000  1
  Ni  Ni7  1  0.21126700  0.21126700  0.00000000  1
  Cu  Cu8  1  0.87390700  0.12609300  0.38767300  1
  Cu  Cu9  1  0.12609300  0.87390700  0.61232700  1
  Cu  Cu10  1  0.62609300  0.37390700  0.88767300  1
  Cu  Cu11  1  0.37390700  0.62609300  0.11232700  1
  Cu  Cu12  1  0.73243900  0.26756100  0.43324000  1
  Cu  Cu13  1  0.26756100  0.73243900  0.56676000  1
  Cu  Cu14  1  0.76756100  0.23243900  0.93324000  1
  Cu  Cu15  1  0.23243900  0.76756100  0.06676000  1
  Cu  Cu16  1  0.76392100  0.07407000  0.49997100  1
  Cu  Cu17  1  0.07407000  0.76392100  0.50002900  1
  Cu  Cu18  1  0.57407000  0.26392100  0.99997100  1
  Cu  Cu19  1  0.26392100  0.57407000  0.00002900  1
  Cu  Cu20  1  0.23607900  0.92593000  0.50002900  1
  Cu  Cu21  1  0.92593000  0.23607900  0.49997100  1
  Cu  Cu22  1  0.42593000  0.73607900  0.00002900  1
  Cu  Cu23  1  0.73607900  0.42593000  0.99997100  1
  Cu  Cu24  1  0.39068400  0.94794500  0.74858100  1
  Cu  Cu25  1  0.94794500  0.39068400  0.25141900  1
  Cu  Cu26  1  0.44794500  0.89068400  0.24858100  1
  Cu  Cu27  1  0.89068400  0.44794500  0.75141900  1
  Cu  Cu28  1  0.60931600  0.05205500  0.25141900  1
  Cu  Cu29  1  0.05205500  0.60931600  0.74858100  1
  Cu  Cu30  1  0.55205500  0.10931600  0.75141900  1
  Cu  Cu31  1  0.10931600  0.55205500  0.24858100  1
  Cu  Cu32  1  0.58332100  0.92354500  0.68265400  1
  Cu  Cu33  1  0.92354500  0.58332100  0.31734600  1
  Cu  Cu34  1  0.42354500  0.08332100  0.18265400  1
  Cu  Cu35  1  0.08332100  0.42354500  0.81734600  1
  Cu  Cu36  1  0.41667900  0.07645500  0.31734600  1
  Cu  Cu37  1  0.07645500  0.41667900  0.68265400  1
  Cu  Cu38  1  0.57645500  0.91667900  0.81734600  1
  Cu  Cu39  1  0.91667900  0.57645500  0.18265400  1
  C  C40  1  0.52498900  0.97501100  0.75000000  1
  C  C41  1  0.97501100  0.52498900  0.25000000  1
  C  C42  1  0.47501100  0.02498900  0.25000000  1
  C  C43  1  0.02498900  0.47501100  0.75000000  1
  C  C44  1  0.82353400  0.17646600  0.45661900  1
  C  C45  1  0.17646600  0.82353400  0.54338100  1
  C  C46  1  0.67646600  0.32353400  0.95661900  1
  C  C47  1  0.32353400  0.67646600  0.04338100  1
  C  C48  1  0.39760100  0.60239900  0.66285000  1
  C  C49  1  0.60239900  0.39760100  0.33715000  1
  C  C50  1  0.10239900  0.89760100  0.16285000  1
  C  C51  1  0.89760100  0.10239900  0.83715000  1
  C  C52  1  0.62002100  0.37997900  0.74157200  1
  C  C53  1  0.37997900  0.62002100  0.25842800  1
  C  C54  1  0.87997900  0.12002100  0.24157200  1
  C  C55  1  0.12002100  0.87997900  0.75842800  1
  C  C56  1  0.12381900  0.30793900  0.56342800  1
  C  C57  1  0.30793900  0.12381900  0.43657200  1
  C  C58  1  0.80793900  0.62381900  0.06342800  1
  C  C59  1  0.62381900  0.80793900  0.93657200  1
  C  C60  1  0.87618100  0.69206100  0.43657200  1
  C  C61  1  0.69206100  0.87618100  0.56342800  1
  C  C62  1  0.19206100  0.37618100  0.93657200  1
  C  C63  1  0.37618100  0.19206100  0.06342800  1
  C  C64  1  0.46026100  0.30409200  0.57564600  1
  C  C65  1  0.30409200  0.46026100  0.42435400  1
  C  C66  1  0.80409200  0.96026100  0.07564600  1
  C  C67  1  0.96026100  0.80409200  0.92435400  1
  C  C68  1  0.53973900  0.69590800  0.42435400  1
  C  C69  1  0.69590800  0.53973900  0.57564600  1
  C  C70  1  0.19590800  0.03973900  0.92435400  1
  C  C71  1  0.03973900  0.19590800  0.07564600  1
