# generated using pymatgen
data_CuNiC
_symmetry_space_group_name_H-M   'P 1'
_cell_length_a   3.09064100
_cell_length_b   4.75922500
_cell_length_c   14.30328826
_cell_angle_alpha   87.85831749
_cell_angle_beta   90.00000000
_cell_angle_gamma   90.00000000
_symmetry_Int_Tables_number   1
_chemical_formula_structural   CuNiC
_chemical_formula_sum   'Cu6 Ni6 C6'
_cell_volume   210.24090476
_cell_formula_units_Z   6
loop_
 _symmetry_equiv_pos_site_id
 _symmetry_equiv_pos_as_xyz
  1  'x, y, z'
loop_
 _atom_site_type_symbol
 _atom_site_label
 _atom_site_symmetry_multiplicity
 _atom_site_fract_x
 _atom_site_fract_y
 _atom_site_fract_z
 _atom_site_occupancy
  C  C0  1  0.00000000  0.93690100  0.00035100  1
  C  C1  1  0.00000000  0.01693600  0.33182700  1
  C  C2  1  0.00000000  0.96749100  0.66531300  1
  C  C3  1  0.50000000  0.48108400  0.16515000  1
  C  C4  1  0.50000000  0.56604300  0.49821300  1
  C  C5  1  0.50000000  0.53509200  0.83399100  1
  Ni  Ni6  1  0.50000000  0.81886800  0.60057600  1
  Ni  Ni7  1  0.50000000  0.78879300  0.93646300  1
  Ni  Ni8  1  0.00000000  0.67697000  0.10608200  1
  Ni  Ni9  1  0.00000000  0.69223000  0.76907200  1
  Ni  Ni10  1  0.00000000  0.71583000  0.43015900  1
  Ni  Ni11  1  0.00000000  0.29663100  0.23574700  1
  Cu  Cu12  1  0.50000000  0.81377400  0.27020900  1
  Cu  Cu13  1  0.00000000  0.31948400  0.56359300  1
  Cu  Cu14  1  0.00000000  0.29106900  0.89875100  1
  Cu  Cu15  1  0.50000000  0.17722300  0.06262600  1
  Cu  Cu16  1  0.50000000  0.20897800  0.40166100  1
  Cu  Cu17  1  0.50000000  0.19660300  0.73021500  1
