# generated using pymatgen
data_Cu2Ni3C31
_symmetry_space_group_name_H-M   'P 1'
_cell_length_a   8.55753467
_cell_length_b   8.55753467
_cell_length_c   8.55753444
_cell_angle_alpha   60.91392344
_cell_angle_beta   60.91392344
_cell_angle_gamma   60.91391886
_symmetry_Int_Tables_number   1
_chemical_formula_structural   Cu2Ni3C31
_chemical_formula_sum   'Cu2 Ni3 C31'
_cell_volume   452.25739677
_cell_formula_units_Z   1
loop_
 _symmetry_equiv_pos_site_id
 _symmetry_equiv_pos_as_xyz
  1  'x, y, z'
loop_
 _atom_site_type_symbol
 _atom_site_label
 _atom_site_symmetry_multiplicity
 _atom_site_fract_x
 _atom_site_fract_y
 _atom_site_fract_z
 _atom_site_occupancy
  Ni  Ni0  1  0.35463800  0.35463800  0.35463800  1
  Ni  Ni1  1  0.14519600  0.14519600  0.14519600  1
  Ni  Ni2  1  0.64338700  0.64338700  0.64338700  1
  Cu  Cu3  1  0.00690800  0.00690800  0.00690800  1
  Cu  Cu4  1  0.49932800  0.49932800  0.49932800  1
  C  C5  1  0.85735100  0.85735100  0.85735100  1
  C  C6  1  0.74605000  0.04713200  0.45228200  1
  C  C7  1  0.04713200  0.45228200  0.74605000  1
  C  C8  1  0.45228200  0.74605000  0.04713200  1
  C  C9  1  0.54111000  0.25241100  0.95319900  1
  C  C10  1  0.95319900  0.54111000  0.25241100  1
  C  C11  1  0.25241100  0.95319900  0.54111000  1
  C  C12  1  0.88812500  0.50085200  0.68176400  1
  C  C13  1  0.50085200  0.68176400  0.88812500  1
  C  C14  1  0.68176400  0.88812500  0.50085200  1
  C  C15  1  0.90994900  0.05917700  0.26066000  1
  C  C16  1  0.81330000  0.01144800  0.61263900  1
  C  C17  1  0.58925500  0.24343000  0.44082500  1
  C  C18  1  0.05917700  0.26066000  0.90994900  1
  C  C19  1  0.24343000  0.44082500  0.58925500  1
  C  C20  1  0.39034200  0.17962600  0.99433900  1
  C  C21  1  0.44082500  0.58925500  0.24343000  1
  C  C22  1  0.74409600  0.08623600  0.93970000  1
  C  C23  1  0.99433900  0.39034200  0.17962600  1
  C  C24  1  0.01144800  0.61263900  0.81330000  1
  C  C25  1  0.26066000  0.90994900  0.05917700  1
  C  C26  1  0.56239900  0.40697700  0.75511000  1
  C  C27  1  0.61263900  0.81330000  0.01144800  1
  C  C28  1  0.75511000  0.56239900  0.40697700  1
  C  C29  1  0.93970000  0.74409600  0.08623600  1
  C  C30  1  0.40697700  0.75511000  0.56239900  1
  C  C31  1  0.17962600  0.99433900  0.39034200  1
  C  C32  1  0.08623600  0.93970000  0.74409600  1
  C  C33  1  0.31069400  0.11076900  0.50928500  1
  C  C34  1  0.50928500  0.31069400  0.11076900  1
  C  C35  1  0.11076900  0.50928500  0.31069400  1
