# generated using pymatgen
data_Cu5NiC3
_symmetry_space_group_name_H-M   'P 1'
_cell_length_a   10.76071653
_cell_length_b   10.76071653
_cell_length_c   3.18054200
_cell_angle_alpha   90.00000000
_cell_angle_beta   90.00000000
_cell_angle_gamma   142.79732260
_symmetry_Int_Tables_number   1
_chemical_formula_structural   Cu5NiC3
_chemical_formula_sum   'Cu10 Ni2 C6'
_cell_volume   222.67822933
_cell_formula_units_Z   2
loop_
 _symmetry_equiv_pos_site_id
 _symmetry_equiv_pos_as_xyz
  1  'x, y, z'
loop_
 _atom_site_type_symbol
 _atom_site_label
 _atom_site_symmetry_multiplicity
 _atom_site_fract_x
 _atom_site_fract_y
 _atom_site_fract_z
 _atom_site_occupancy
  C  C0  1  0.00000000  0.00000000  0.00000000  1
  C  C1  1  0.50000000  0.50000000  0.50000000  1
  C  C2  1  0.65447300  0.34552700  0.00000000  1
  C  C3  1  0.83030900  0.16969100  0.50000000  1
  C  C4  1  0.16969100  0.83030900  0.50000000  1
  C  C5  1  0.34552700  0.65447300  0.00000000  1
  Ni  Ni6  1  0.60239300  0.39760700  0.50000000  1
  Ni  Ni7  1  0.39760700  0.60239300  0.50000000  1
  Cu  Cu8  1  0.29500800  0.29500800  0.00000000  1
  Cu  Cu9  1  0.37802600  0.03707700  0.00000000  1
  Cu  Cu10  1  0.70499200  0.70499200  0.00000000  1
  Cu  Cu11  1  0.72934200  0.27065800  0.50000000  1
  Cu  Cu12  1  0.06978600  0.93021400  0.50000000  1
  Cu  Cu13  1  0.96292300  0.62197400  0.00000000  1
  Cu  Cu14  1  0.03707700  0.37802600  0.00000000  1
  Cu  Cu15  1  0.93021400  0.06978600  0.50000000  1
  Cu  Cu16  1  0.27065800  0.72934200  0.50000000  1
  Cu  Cu17  1  0.62197400  0.96292300  0.00000000  1
