# generated using pymatgen
data_Cu14Ni2C9
_symmetry_space_group_name_H-M   'P 1'
_cell_length_a   6.64418300
_cell_length_b   10.39082100
_cell_length_c   10.45977701
_cell_angle_alpha   60.51012999
_cell_angle_beta   90.00000000
_cell_angle_gamma   90.00000000
_symmetry_Int_Tables_number   1
_chemical_formula_structural   Cu14Ni2C9
_chemical_formula_sum   'Cu28 Ni4 C18'
_cell_volume   628.57062942
_cell_formula_units_Z   2
loop_
 _symmetry_equiv_pos_site_id
 _symmetry_equiv_pos_as_xyz
  1  'x, y, z'
loop_
 _atom_site_type_symbol
 _atom_site_label
 _atom_site_symmetry_multiplicity
 _atom_site_fract_x
 _atom_site_fract_y
 _atom_site_fract_z
 _atom_site_occupancy
  C  C0  1  0.25842400  0.09326100  0.81904700  1
  C  C1  1  0.24962700  0.58991100  0.33493500  1
  C  C2  1  0.00030400  0.75169200  0.98798200  1
  C  C3  1  0.49722700  0.75403000  0.98572500  1
  C  C4  1  0.01883700  0.23500300  0.49705800  1
  C  C5  1  0.99722700  0.24597000  0.01427500  1
  C  C6  1  0.50030400  0.24830800  0.01201800  1
  C  C7  1  0.51883700  0.76499700  0.50294200  1
  C  C8  1  0.75842400  0.90673900  0.18095300  1
  C  C9  1  0.74962700  0.41008900  0.66506500  1
  C  C10  1  0.74466600  0.46131000  0.18648700  1
  C  C11  1  0.74204300  0.97235700  0.67620600  1
  C  C12  1  0.24466600  0.53869000  0.81351300  1
  C  C13  1  0.24204300  0.02764300  0.32379400  1
  C  C14  1  0.24759100  0.39769400  0.18255900  1
  C  C15  1  0.25012300  0.89082300  0.68984700  1
  C  C16  1  0.74759100  0.60230600  0.81744100  1
  C  C17  1  0.75012300  0.10917700  0.31015300  1
  Ni  Ni18  1  0.75629000  0.08396600  0.86024000  1
  Ni  Ni19  1  0.74587800  0.58168100  0.34660300  1
  Ni  Ni20  1  0.25629000  0.91603400  0.13976000  1
  Ni  Ni21  1  0.24587800  0.41831900  0.65339700  1
  Cu  Cu22  1  0.24831800  0.85176100  0.06042200  1
  Cu  Cu23  1  0.22991400  0.36285800  0.57002000  1
  Cu  Cu24  1  0.74489200  0.66370100  0.20259100  1
  Cu  Cu25  1  0.76662200  0.16205900  0.71806700  1
  Cu  Cu26  1  0.75251000  0.94061300  0.92154100  1
  Cu  Cu27  1  0.76242100  0.43879400  0.39712100  1
  Cu  Cu28  1  0.43547500  0.48447300  0.19077100  1
  Cu  Cu29  1  0.05993000  0.48514800  0.19043400  1
  Cu  Cu30  1  0.43463000  0.95880600  0.72513500  1
  Cu  Cu31  1  0.06394200  0.97172100  0.70525800  1
  Cu  Cu32  1  0.74886900  0.60209400  0.96750000  1
  Cu  Cu33  1  0.76325700  0.11127600  0.45458700  1
  Cu  Cu34  1  0.24010500  0.72243700  0.81989400  1
  Cu  Cu35  1  0.24056700  0.23784100  0.30665500  1
  Cu  Cu36  1  0.74010500  0.27756300  0.18010600  1
  Cu  Cu37  1  0.74056700  0.76215900  0.69334500  1
  Cu  Cu38  1  0.24886900  0.39790600  0.03250000  1
  Cu  Cu39  1  0.26325700  0.88872400  0.54541300  1
  Cu  Cu40  1  0.93547500  0.51552700  0.80922900  1
  Cu  Cu41  1  0.55993000  0.51485200  0.80956600  1
  Cu  Cu42  1  0.56394200  0.02827900  0.29474200  1
  Cu  Cu43  1  0.93463000  0.04119400  0.27486500  1
  Cu  Cu44  1  0.25251000  0.05938700  0.07845900  1
  Cu  Cu45  1  0.26242100  0.56120600  0.60287900  1
  Cu  Cu46  1  0.24489200  0.33629900  0.79740900  1
  Cu  Cu47  1  0.26662200  0.83794100  0.28193300  1
  Cu  Cu48  1  0.74831800  0.14823900  0.93957800  1
  Cu  Cu49  1  0.72991400  0.63714200  0.42998000  1
