# generated using pymatgen
data_Cu(NiC4)3
_symmetry_space_group_name_H-M   'P 1'
_cell_length_a   5.13889000
_cell_length_b   7.84203606
_cell_length_c   7.84337966
_cell_angle_alpha   81.78007113
_cell_angle_beta   83.75558666
_cell_angle_gamma   70.94471955
_symmetry_Int_Tables_number   1
_chemical_formula_structural   Cu(NiC4)3
_chemical_formula_sum   'Cu2 Ni6 C24'
_cell_volume   295.04172267
_cell_formula_units_Z   2
loop_
 _symmetry_equiv_pos_site_id
 _symmetry_equiv_pos_as_xyz
  1  'x, y, z'
loop_
 _atom_site_type_symbol
 _atom_site_label
 _atom_site_symmetry_multiplicity
 _atom_site_fract_x
 _atom_site_fract_y
 _atom_site_fract_z
 _atom_site_occupancy
  C  C0  1  0.00034700  0.56235300  0.81260800  1
  C  C1  1  0.00001100  0.31236700  0.56248300  1
  C  C2  1  0.99965300  0.43764700  0.18739200  1
  C  C3  1  0.00008200  0.93751100  0.68734400  1
  C  C4  1  0.99991800  0.06248900  0.31265600  1
  C  C5  1  0.99969000  0.18777200  0.93733100  1
  C  C6  1  0.99998900  0.68763300  0.43751700  1
  C  C7  1  0.00031000  0.81222800  0.06266900  1
  Ni  Ni8  1  0.49979800  0.24974900  0.75026000  1
  Ni  Ni9  1  0.50000500  0.37481600  0.37483900  1
  Ni  Ni10  1  0.50000000  0.50000000  0.00000000  1
  Ni  Ni11  1  0.50000000  0.00000000  0.50000000  1
  Ni  Ni12  1  0.49999500  0.62518400  0.62516100  1
  Ni  Ni13  1  0.50020200  0.75025100  0.24974000  1
  Cu  Cu14  1  0.50003100  0.12487600  0.12486600  1
  Cu  Cu15  1  0.49996900  0.87512400  0.87513400  1
  C  C16  1  0.72427500  0.41157200  0.78235200  1
  C  C17  1  0.27578500  0.46327000  0.59259500  1
  C  C18  1  0.72421500  0.53673000  0.40740500  1
  C  C19  1  0.27418100  0.08848700  0.71771000  1
  C  C20  1  0.72428400  0.16160200  0.53248400  1
  C  C21  1  0.72556900  0.28614200  0.15716300  1
  C  C22  1  0.27415100  0.21347200  0.34244900  1
  C  C23  1  0.72584900  0.78652800  0.65755100  1
  C  C24  1  0.72581900  0.91151300  0.28229000  1
  C  C25  1  0.27425300  0.33852000  0.96782100  1
  C  C26  1  0.27571600  0.83839800  0.46751600  1
  C  C27  1  0.72644200  0.03573200  0.90771200  1
  C  C28  1  0.27355800  0.96426800  0.09228800  1
  C  C29  1  0.72574700  0.66148000  0.03217900  1
  C  C30  1  0.27572500  0.58842800  0.21764800  1
  C  C31  1  0.27443100  0.71385800  0.84283700  1
