# generated using pymatgen
data_Cu(NiC4)7
_symmetry_space_group_name_H-M   'P 1'
_cell_length_a   18.01494100
_cell_length_b   4.99079900
_cell_length_c   10.46444773
_cell_angle_alpha   83.56920481
_cell_angle_beta   90.00000000
_cell_angle_gamma   90.00000000
_symmetry_Int_Tables_number   1
_chemical_formula_structural   Cu(NiC4)7
_chemical_formula_sum   'Cu2 Ni14 C56'
_cell_volume   934.92756220
_cell_formula_units_Z   2
loop_
 _symmetry_equiv_pos_site_id
 _symmetry_equiv_pos_as_xyz
  1  'x, y, z'
loop_
 _atom_site_type_symbol
 _atom_site_label
 _atom_site_symmetry_multiplicity
 _atom_site_fract_x
 _atom_site_fract_y
 _atom_site_fract_z
 _atom_site_occupancy
  C  C0  1  0.25000000  0.87229400  0.64672200  1
  C  C1  1  0.75000000  0.53493000  0.05812500  1
  C  C2  1  0.25000000  0.46507000  0.94187500  1
  C  C3  1  0.75000000  0.12770600  0.35327800  1
  C  C4  1  0.52314300  0.82257400  0.80603800  1
  C  C5  1  0.97685700  0.82257400  0.80603800  1
  C  C6  1  0.02314300  0.17742600  0.19396200  1
  C  C7  1  0.47685700  0.17742600  0.19396200  1
  Ni  Ni8  1  0.87391300  0.83803600  0.53658400  1
  Ni  Ni9  1  0.62608700  0.83803600  0.53658400  1
  Ni  Ni10  1  0.75000000  0.58912400  0.68982000  1
  Ni  Ni11  1  0.09642800  0.71887500  0.04710900  1
  Ni  Ni12  1  0.40357200  0.71887500  0.04710900  1
  Ni  Ni13  1  0.91424600  0.64404300  0.29354000  1
  Ni  Ni14  1  0.58575400  0.64404300  0.29354000  1
  Ni  Ni15  1  0.41424600  0.35595700  0.70646000  1
  Ni  Ni16  1  0.08575400  0.35595700  0.70646000  1
  Ni  Ni17  1  0.90357200  0.28112500  0.95289100  1
  Ni  Ni18  1  0.59642800  0.28112500  0.95289100  1
  Ni  Ni19  1  0.25000000  0.41087600  0.31018000  1
  Ni  Ni20  1  0.12608700  0.16196400  0.46341600  1
  Ni  Ni21  1  0.37391300  0.16196400  0.46341600  1
  Cu  Cu22  1  0.25000000  0.88899500  0.25204500  1
  Cu  Cu23  1  0.75000000  0.11100500  0.74795500  1
  C  C24  1  0.33177500  0.93484200  0.53128900  1
  C  C25  1  0.16822500  0.93484200  0.53128900  1
  C  C26  1  0.40203100  0.98550400  0.11122100  1
  C  C27  1  0.09796900  0.98550400  0.11122100  1
  C  C28  1  0.75000000  0.81599400  0.77068200  1
  C  C29  1  0.92501500  0.90625800  0.64510100  1
  C  C30  1  0.57498500  0.90625800  0.64510100  1
  C  C31  1  0.47496500  0.73946700  0.95982900  1
  C  C32  1  0.02503500  0.73946700  0.95982900  1
  C  C33  1  0.96843500  0.85994000  0.22640000  1
  C  C34  1  0.53156500  0.85994000  0.22640000  1
  C  C35  1  0.33575900  0.66476000  0.97423200  1
  C  C36  1  0.16424100  0.66476000  0.97423200  1
  C  C37  1  0.92547400  0.68011800  0.44580000  1
  C  C38  1  0.57452600  0.68011800  0.44580000  1
  C  C39  1  0.83563000  0.67475900  0.25284200  1
  C  C40  1  0.66437000  0.67475900  0.25284200  1
  C  C41  1  0.82009400  0.59495300  0.59496600  1
  C  C42  1  0.67990600  0.59495300  0.59496600  1
  C  C43  1  0.25000000  0.68739000  0.23327200  1
  C  C44  1  0.45059100  0.63447300  0.71668700  1
  C  C45  1  0.04940900  0.63447300  0.71668700  1
  C  C46  1  0.92055100  0.51188900  0.84088700  1
  C  C47  1  0.57944900  0.51188900  0.84088700  1
  C  C48  1  0.42055100  0.48811100  0.15911300  1
  C  C49  1  0.07944900  0.48811100  0.15911300  1
  C  C50  1  0.54940900  0.36552700  0.28331300  1
  C  C51  1  0.95059100  0.36552700  0.28331300  1
  C  C52  1  0.75000000  0.31261000  0.76672800  1
  C  C53  1  0.17990600  0.40504700  0.40503400  1
  C  C54  1  0.32009400  0.40504700  0.40503400  1
  C  C55  1  0.16437000  0.32524100  0.74715800  1
  C  C56  1  0.33563000  0.32524100  0.74715800  1
  C  C57  1  0.42547400  0.31988200  0.55420000  1
  C  C58  1  0.07452600  0.31988200  0.55420000  1
  C  C59  1  0.83575900  0.33524000  0.02576800  1
  C  C60  1  0.66424100  0.33524000  0.02576800  1
  C  C61  1  0.03156500  0.14006000  0.77360000  1
  C  C62  1  0.46843500  0.14006000  0.77360000  1
  C  C63  1  0.97496500  0.26053300  0.04017100  1
  C  C64  1  0.52503500  0.26053300  0.04017100  1
  C  C65  1  0.07498500  0.09374200  0.35489900  1
  C  C66  1  0.42501500  0.09374200  0.35489900  1
  C  C67  1  0.25000000  0.18400600  0.22931800  1
  C  C68  1  0.90203100  0.01449600  0.88877900  1
  C  C69  1  0.59796900  0.01449600  0.88877900  1
  C  C70  1  0.66822500  0.06515800  0.46871100  1
  C  C71  1  0.83177500  0.06515800  0.46871100  1
