# generated using pymatgen
data_Cu7(NiC)2
_symmetry_space_group_name_H-M   'P 1'
_cell_length_a   6.72577000
_cell_length_b   9.13696800
_cell_length_c   9.67345222
_cell_angle_alpha   75.58008061
_cell_angle_beta   90.00000000
_cell_angle_gamma   90.00000000
_symmetry_Int_Tables_number   1
_chemical_formula_structural   Cu7(NiC)2
_chemical_formula_sum   'Cu28 Ni8 C8'
_cell_volume   575.73645077
_cell_formula_units_Z   4
loop_
 _symmetry_equiv_pos_site_id
 _symmetry_equiv_pos_as_xyz
  1  'x, y, z'
loop_
 _atom_site_type_symbol
 _atom_site_label
 _atom_site_symmetry_multiplicity
 _atom_site_fract_x
 _atom_site_fract_y
 _atom_site_fract_z
 _atom_site_occupancy
  C  C0  1  0.43912100  0.74444900  0.65173100  1
  C  C1  1  0.38818000  0.97231000  0.24776900  1
  C  C2  1  0.06087900  0.74444900  0.15173100  1
  C  C3  1  0.11182000  0.97231000  0.74776900  1
  C  C4  1  0.88818000  0.02769000  0.25223100  1
  C  C5  1  0.93912100  0.25555100  0.84826900  1
  C  C6  1  0.61182000  0.02769000  0.75223100  1
  C  C7  1  0.56087900  0.25555100  0.34826900  1
  Ni  Ni8  1  0.80887500  0.79362600  0.64849900  1
  Ni  Ni9  1  0.26536400  0.67551200  0.44003500  1
  Ni  Ni10  1  0.69112500  0.79362600  0.14849900  1
  Ni  Ni11  1  0.76536400  0.32448800  0.05996500  1
  Ni  Ni12  1  0.23463600  0.67551200  0.94003500  1
  Ni  Ni13  1  0.30887500  0.20637400  0.85150100  1
  Ni  Ni14  1  0.73463600  0.32448800  0.55996500  1
  Ni  Ni15  1  0.19112500  0.20637400  0.35150100  1
  Cu  Cu16  1  0.62537700  0.05242300  0.32632100  1
  Cu  Cu17  1  0.98703700  0.84798200  0.62883900  1
  Cu  Cu18  1  0.32290900  0.63492300  0.83959600  1
  Cu  Cu19  1  0.33087900  0.81771700  0.42761100  1
  Cu  Cu20  1  0.72094400  0.72534200  0.56598000  1
  Cu  Cu21  1  0.87462300  0.05242300  0.82632100  1
  Cu  Cu22  1  0.51296300  0.84798200  0.12883900  1
  Cu  Cu23  1  0.80077000  0.81185600  0.25746300  1
  Cu  Cu24  1  0.80382300  0.41182400  0.93658600  1
  Cu  Cu25  1  0.30382300  0.58817600  0.56341400  1
  Cu  Cu26  1  0.17709100  0.63492300  0.33959600  1
  Cu  Cu27  1  0.30077000  0.18814400  0.24253700  1
  Cu  Cu28  1  0.16912100  0.81771700  0.92761100  1
  Cu  Cu29  1  0.22094400  0.27465800  0.93402000  1
  Cu  Cu30  1  0.77905600  0.72534200  0.06598000  1
  Cu  Cu31  1  0.83087900  0.18228300  0.07238900  1
  Cu  Cu32  1  0.69923000  0.81185600  0.75746300  1
  Cu  Cu33  1  0.82290900  0.36507700  0.66040400  1
  Cu  Cu34  1  0.69617700  0.41182400  0.43658600  1
  Cu  Cu35  1  0.19617700  0.58817600  0.06341400  1
  Cu  Cu36  1  0.19923000  0.18814400  0.74253700  1
  Cu  Cu37  1  0.48703700  0.15201800  0.87116100  1
  Cu  Cu38  1  0.12537700  0.94757700  0.17367900  1
  Cu  Cu39  1  0.27905600  0.27465800  0.43402000  1
  Cu  Cu40  1  0.66912100  0.18228300  0.57238900  1
  Cu  Cu41  1  0.67709100  0.36507700  0.16040400  1
  Cu  Cu42  1  0.01296300  0.15201800  0.37116100  1
  Cu  Cu43  1  0.37462300  0.94757700  0.67367900  1
