# generated using pymatgen
data_Cu2NiC19
_symmetry_space_group_name_H-M   'P 1'
_cell_length_a   5.76304200
_cell_length_b   8.94559900
_cell_length_c   10.24761538
_cell_angle_alpha   64.45335284
_cell_angle_beta   90.00000000
_cell_angle_gamma   90.00000000
_symmetry_Int_Tables_number   1
_chemical_formula_structural   Cu2NiC19
_chemical_formula_sum   'Cu4 Ni2 C38'
_cell_volume   476.65422965
_cell_formula_units_Z   2
loop_
 _symmetry_equiv_pos_site_id
 _symmetry_equiv_pos_as_xyz
  1  'x, y, z'
loop_
 _atom_site_type_symbol
 _atom_site_label
 _atom_site_symmetry_multiplicity
 _atom_site_fract_x
 _atom_site_fract_y
 _atom_site_fract_z
 _atom_site_occupancy
  C  C0  1  0.25000000  0.24621200  0.15321100  1
  C  C1  1  0.75000000  0.75378800  0.84678900  1
  C  C2  1  0.25000000  0.40270000  0.42744300  1
  C  C3  1  0.75000000  0.59730000  0.57255700  1
  Ni  Ni4  1  0.75000000  0.70385800  0.22075100  1
  Ni  Ni5  1  0.25000000  0.29614200  0.77924900  1
  Cu  Cu6  1  0.50000000  0.00000000  0.00000000  1
  Cu  Cu7  1  0.00000000  0.00000000  0.00000000  1
  Cu  Cu8  1  0.50000000  0.00000000  0.50000000  1
  Cu  Cu9  1  0.00000000  0.00000000  0.50000000  1
  C  C10  1  0.25000000  0.66099800  0.04519900  1
  C  C11  1  0.75000000  0.33900200  0.95480100  1
  C  C12  1  0.75000000  0.31537500  0.27387400  1
  C  C13  1  0.25000000  0.68462500  0.72612600  1
  C  C14  1  0.25000000  0.81339700  0.31969600  1
  C  C15  1  0.75000000  0.18660300  0.68030400  1
  C  C16  1  0.75000000  0.94083700  0.33023200  1
  C  C17  1  0.25000000  0.05916300  0.66976800  1
  C  C18  1  0.49021100  0.77064400  0.03197900  1
  C  C19  1  0.99021100  0.22935600  0.96802100  1
  C  C20  1  0.50978900  0.22935600  0.96802100  1
  C  C21  1  0.00978900  0.77064400  0.03197900  1
  C  C22  1  0.47811400  0.69189600  0.35831700  1
  C  C23  1  0.97811400  0.30810400  0.64168300  1
  C  C24  1  0.52188600  0.30810400  0.64168300  1
  C  C25  1  0.02188600  0.69189600  0.35831700  1
  C  C26  1  0.51729200  0.20218200  0.33533200  1
  C  C27  1  0.01729200  0.79781800  0.66466800  1
  C  C28  1  0.48270800  0.79781800  0.66466800  1
  C  C29  1  0.98270800  0.20218200  0.33533200  1
  C  C30  1  0.75000000  0.94070900  0.13113400  1
  C  C31  1  0.25000000  0.05929100  0.86886600  1
  C  C32  1  0.25000000  0.95519600  0.14502800  1
  C  C33  1  0.75000000  0.04480400  0.85497200  1
  C  C34  1  0.25000000  0.93141000  0.40824500  1
  C  C35  1  0.75000000  0.06859000  0.59175500  1
  C  C36  1  0.25000000  0.48817700  0.18455700  1
  C  C37  1  0.75000000  0.51182300  0.81544300  1
  C  C38  1  0.75000000  0.46956700  0.31698900  1
  C  C39  1  0.25000000  0.53043300  0.68301100  1
  C  C40  1  0.75000000  0.38545900  0.09541300  1
  C  C41  1  0.25000000  0.61454100  0.90458700  1
  C  C42  1  0.75000000  0.91196500  0.43428000  1
  C  C43  1  0.25000000  0.08803500  0.56572000  1
