# generated using pymatgen
data_Cu3NiC
_symmetry_space_group_name_H-M   'P 1'
_cell_length_a   7.59578100
_cell_length_b   8.69030700
_cell_length_c   19.73455900
_cell_angle_alpha   90.00000000
_cell_angle_beta   90.00000000
_cell_angle_gamma   90.00000000
_symmetry_Int_Tables_number   1
_chemical_formula_structural   Cu3NiC
_chemical_formula_sum   'Cu48 Ni16 C16'
_cell_volume   1302.67170340
_cell_formula_units_Z   16
loop_
 _symmetry_equiv_pos_site_id
 _symmetry_equiv_pos_as_xyz
  1  'x, y, z'
loop_
 _atom_site_type_symbol
 _atom_site_label
 _atom_site_symmetry_multiplicity
 _atom_site_fract_x
 _atom_site_fract_y
 _atom_site_fract_z
 _atom_site_occupancy
  C  C0  1  0.52041400  0.51541100  0.35293100  1
  C  C1  1  0.47958600  0.48458900  0.85293100  1
  C  C2  1  0.52041400  0.98458900  0.85293100  1
  C  C3  1  0.47958600  0.01541100  0.35293100  1
  C  C4  1  0.99411500  0.53495800  0.15711800  1
  C  C5  1  0.00588500  0.46504200  0.65711800  1
  C  C6  1  0.99411500  0.96504200  0.65711800  1
  C  C7  1  0.00588500  0.03495800  0.15711800  1
  C  C8  1  0.75613900  0.50839900  0.00388500  1
  C  C9  1  0.24386100  0.49160100  0.50388500  1
  C  C10  1  0.75613900  0.99160100  0.50388500  1
  C  C11  1  0.24386100  0.00839900  0.00388500  1
  C  C12  1  0.73099100  0.26005200  0.26311800  1
  C  C13  1  0.26900900  0.73994800  0.76311800  1
  C  C14  1  0.73099100  0.23994800  0.76311800  1
  C  C15  1  0.26900900  0.76005200  0.26311800  1
  Ni  Ni16  1  0.80957700  0.82814000  0.00073800  1
  Ni  Ni17  1  0.19042300  0.17186000  0.50073800  1
  Ni  Ni18  1  0.80957700  0.67186000  0.50073800  1
  Ni  Ni19  1  0.19042300  0.32814000  0.00073800  1
  Ni  Ni20  1  0.30995300  0.72554500  0.00451900  1
  Ni  Ni21  1  0.69004700  0.27445500  0.50451900  1
  Ni  Ni22  1  0.30995300  0.77445500  0.50451900  1
  Ni  Ni23  1  0.69004700  0.22554500  0.00451900  1
  Ni  Ni24  1  0.94799500  0.81693300  0.33078100  1
  Ni  Ni25  1  0.05200500  0.18306700  0.83078100  1
  Ni  Ni26  1  0.94799500  0.68306700  0.83078100  1
  Ni  Ni27  1  0.05200500  0.31693300  0.33078100  1
  Ni  Ni28  1  0.53776100  0.75369600  0.18882600  1
  Ni  Ni29  1  0.46223900  0.24630400  0.68882600  1
  Ni  Ni30  1  0.53776100  0.74630400  0.68882600  1
  Ni  Ni31  1  0.46223900  0.25369600  0.18882600  1
  Cu  Cu32  1  0.72361900  0.64979000  0.96085300  1
  Cu  Cu33  1  0.27638100  0.35021000  0.46085300  1
  Cu  Cu34  1  0.72361900  0.85021000  0.46085300  1
  Cu  Cu35  1  0.27638100  0.14979000  0.96085300  1
  Cu  Cu36  1  0.60532000  0.94149900  0.98648600  1
  Cu  Cu37  1  0.39468000  0.05850100  0.48648600  1
  Cu  Cu38  1  0.60532000  0.55850100  0.48648600  1
  Cu  Cu39  1  0.39468000  0.44149900  0.98648600  1
  Cu  Cu40  1  0.78158200  0.78718200  0.09101900  1
  Cu  Cu41  1  0.21841800  0.21281800  0.59101900  1
  Cu  Cu42  1  0.78158200  0.71281800  0.59101900  1
  Cu  Cu43  1  0.21841800  0.28718200  0.09101900  1
  Cu  Cu44  1  0.10320100  0.62464000  0.02467600  1
  Cu  Cu45  1  0.89679900  0.37536000  0.52467600  1
  Cu  Cu46  1  0.10320100  0.87536000  0.52467600  1
  Cu  Cu47  1  0.89679900  0.12464000  0.02467600  1
  Cu  Cu48  1  0.21021600  0.91716300  0.03547000  1
  Cu  Cu49  1  0.78978400  0.08283700  0.53547000  1
  Cu  Cu50  1  0.21021600  0.58283700  0.53547000  1
  Cu  Cu51  1  0.78978400  0.41716300  0.03547000  1
  Cu  Cu52  1  0.27976800  0.75351900  0.91418100  1
  Cu  Cu53  1  0.72023200  0.24648100  0.41418100  1
  Cu  Cu54  1  0.27976800  0.74648100  0.41418100  1
  Cu  Cu55  1  0.72023200  0.25351900  0.91418100  1
  Cu  Cu56  1  0.08042700  0.77191100  0.25506200  1
  Cu  Cu57  1  0.91957300  0.22808900  0.75506200  1
  Cu  Cu58  1  0.08042700  0.72808900  0.75506200  1
  Cu  Cu59  1  0.91957300  0.27191100  0.25506200  1
  Cu  Cu60  1  0.87606000  0.62304200  0.35634200  1
  Cu  Cu61  1  0.12394000  0.37695800  0.85634200  1
  Cu  Cu62  1  0.87606000  0.87695800  0.85634200  1
  Cu  Cu63  1  0.12394000  0.12304200  0.35634200  1
  Cu  Cu64  1  0.75756000  0.89152800  0.28531200  1
  Cu  Cu65  1  0.24244000  0.10847200  0.78531200  1
  Cu  Cu66  1  0.75756000  0.60847200  0.78531200  1
  Cu  Cu67  1  0.24244000  0.39152800  0.28531200  1
  Cu  Cu68  1  0.35402100  0.69091700  0.13528200  1
  Cu  Cu69  1  0.64597900  0.30908300  0.63528200  1
  Cu  Cu70  1  0.35402100  0.80908300  0.63528200  1
  Cu  Cu71  1  0.64597900  0.19091700  0.13528200  1
  Cu  Cu72  1  0.40727000  0.75542400  0.27173800  1
  Cu  Cu73  1  0.59273000  0.24457600  0.77173800  1
  Cu  Cu74  1  0.40727000  0.74457600  0.77173800  1
  Cu  Cu75  1  0.59273000  0.25542400  0.27173800  1
  Cu  Cu76  1  0.64798300  0.57327300  0.20436200  1
  Cu  Cu77  1  0.35201700  0.42672700  0.70436200  1
  Cu  Cu78  1  0.64798300  0.92672700  0.70436200  1
  Cu  Cu79  1  0.35201700  0.07327300  0.20436200  1
