# generated using pymatgen
data_CuNi3C10
_symmetry_space_group_name_H-M   'P 1'
_cell_length_a   5.94801604
_cell_length_b   5.94801604
_cell_length_c   9.81211000
_cell_angle_alpha   90.00000000
_cell_angle_beta   90.00000000
_cell_angle_gamma   120.00000040
_symmetry_Int_Tables_number   1
_chemical_formula_structural   CuNi3C10
_chemical_formula_sum   'Cu2 Ni6 C20'
_cell_volume   300.63344927
_cell_formula_units_Z   2
loop_
 _symmetry_equiv_pos_site_id
 _symmetry_equiv_pos_as_xyz
  1  'x, y, z'
loop_
 _atom_site_type_symbol
 _atom_site_label
 _atom_site_symmetry_multiplicity
 _atom_site_fract_x
 _atom_site_fract_y
 _atom_site_fract_z
 _atom_site_occupancy
  C  C0  1  0.33333300  0.66666700  0.89223300  1
  C  C1  1  0.00000000  0.00000000  0.99876600  1
  C  C2  1  0.00000000  0.00000000  0.49876600  1
  C  C3  1  0.66666700  0.33333300  0.39223300  1
  Ni  Ni4  1  0.16815600  0.83184400  0.21526500  1
  Ni  Ni5  1  0.16815600  0.33631200  0.21526500  1
  Ni  Ni6  1  0.66368800  0.83184400  0.21526500  1
  Ni  Ni7  1  0.33631200  0.16815600  0.71526500  1
  Ni  Ni8  1  0.83184400  0.66368800  0.71526500  1
  Ni  Ni9  1  0.83184400  0.16815600  0.71526500  1
  Cu  Cu10  1  0.33333300  0.66666700  0.48559300  1
  Cu  Cu11  1  0.66666700  0.33333300  0.98559300  1
  C  C12  1  0.15797800  0.84202200  0.60724200  1
  C  C13  1  0.03510200  0.51755100  0.32931000  1
  C  C14  1  0.33333300  0.66666700  0.10607900  1
  C  C15  1  0.00000000  0.00000000  0.31523800  1
  C  C16  1  0.00000000  0.00000000  0.81523800  1
  C  C17  1  0.15797800  0.31595600  0.60724200  1
  C  C18  1  0.48244900  0.96489800  0.32931000  1
  C  C19  1  0.48244900  0.51755100  0.32931000  1
  C  C20  1  0.31595600  0.15797800  0.10724200  1
  C  C21  1  0.68404400  0.84202200  0.60724200  1
  C  C22  1  0.51755100  0.48244900  0.82931000  1
  C  C23  1  0.51755100  0.03510200  0.82931000  1
  C  C24  1  0.66666700  0.33333300  0.60607900  1
  C  C25  1  0.84202200  0.68404400  0.10724200  1
  C  C26  1  0.96489800  0.48244900  0.82931000  1
  C  C27  1  0.84202200  0.15797800  0.10724200  1
