# generated using pymatgen
data_Cu6Ni24C19
_symmetry_space_group_name_H-M   'P 1'
_cell_length_a   10.16617542
_cell_length_b   10.16617542
_cell_length_c   6.50781900
_cell_angle_alpha   90.00000000
_cell_angle_beta   90.00000000
_cell_angle_gamma   119.99999619
_symmetry_Int_Tables_number   1
_chemical_formula_structural   Cu6Ni24C19
_chemical_formula_sum   'Cu6 Ni24 C19'
_cell_volume   582.48039434
_cell_formula_units_Z   1
loop_
 _symmetry_equiv_pos_site_id
 _symmetry_equiv_pos_as_xyz
  1  'x, y, z'
loop_
 _atom_site_type_symbol
 _atom_site_label
 _atom_site_symmetry_multiplicity
 _atom_site_fract_x
 _atom_site_fract_y
 _atom_site_fract_z
 _atom_site_occupancy
  C  C0  1  0.66666700  0.33333300  0.58111800  1
  C  C1  1  0.87397500  0.70648100  0.47560900  1
  C  C2  1  0.83250500  0.12602500  0.47560900  1
  C  C3  1  0.00000000  0.00000000  0.28676900  1
  C  C4  1  0.29351900  0.16749500  0.47560900  1
  C  C5  1  0.96793900  0.50747000  0.74553900  1
  C  C6  1  0.49253000  0.46046800  0.74553900  1
  C  C7  1  0.33333300  0.66666700  0.83435800  1
  C  C8  1  0.33333300  0.66666700  0.35951800  1
  C  C9  1  0.53953200  0.03206100  0.74553900  1
  C  C10  1  0.83785700  0.66712800  0.00174200  1
  C  C11  1  0.82927100  0.16214300  0.00174200  1
  C  C12  1  0.33287200  0.17072900  0.00174200  1
  C  C13  1  0.70805700  0.84198100  0.73906900  1
  C  C14  1  0.15801900  0.86607500  0.73906900  1
  C  C15  1  0.13392500  0.29194300  0.73906900  1
  C  C16  1  0.95687700  0.47931500  0.26474900  1
  C  C17  1  0.52068500  0.47756200  0.26474900  1
  C  C18  1  0.52243800  0.04312300  0.26474900  1
  Ni  Ni19  1  0.69476400  0.59424400  0.22805600  1
  Ni  Ni20  1  0.78761200  0.81334300  0.92712100  1
  Ni  Ni21  1  0.79162800  0.84501600  0.54214400  1
  Ni  Ni22  1  0.99385900  0.72665200  0.77404800  1
  Ni  Ni23  1  0.73279300  0.00614100  0.77404800  1
  Ni  Ni24  1  0.15498400  0.94661200  0.54214400  1
  Ni  Ni25  1  0.18665700  0.97426900  0.92712100  1
  Ni  Ni26  1  0.02573100  0.21238800  0.92712100  1
  Ni  Ni27  1  0.89947900  0.30523600  0.22805600  1
  Ni  Ni28  1  0.05338800  0.20837200  0.54214400  1
  Ni  Ni29  1  0.87957000  0.49551000  0.45709700  1
  Ni  Ni30  1  0.90457000  0.52725300  0.06523400  1
  Ni  Ni31  1  0.40575600  0.10052100  0.22805600  1
  Ni  Ni32  1  0.27334800  0.26720700  0.77404800  1
  Ni  Ni33  1  0.18368300  0.46172800  0.73888800  1
  Ni  Ni34  1  0.47274700  0.37731800  0.06523400  1
  Ni  Ni35  1  0.50449000  0.38406000  0.45709700  1
  Ni  Ni36  1  0.27804500  0.81631700  0.73888800  1
  Ni  Ni37  1  0.53827200  0.72195500  0.73888800  1
  Ni  Ni38  1  0.61594000  0.12043000  0.45709700  1
  Ni  Ni39  1  0.62268200  0.09543000  0.06523400  1
  Ni  Ni40  1  0.12913400  0.56721100  0.27451100  1
  Ni  Ni41  1  0.43278900  0.56192200  0.27451100  1
  Ni  Ni42  1  0.43807800  0.87086600  0.27451100  1
  Cu  Cu43  1  0.70444100  0.52813800  0.79240900  1
  Cu  Cu44  1  0.96720400  0.80216800  0.20983200  1
  Cu  Cu45  1  0.83496400  0.03279600  0.20983200  1
  Cu  Cu46  1  0.82369700  0.29555900  0.79240900  1
  Cu  Cu47  1  0.19783200  0.16503600  0.20983200  1
  Cu  Cu48  1  0.47186200  0.17630300  0.79240900  1
