# generated using pymatgen
data_CuNiC3
_symmetry_space_group_name_H-M   'P 1'
_cell_length_a   5.63790600
_cell_length_b   5.90736300
_cell_length_c   8.32893800
_cell_angle_alpha   90.00000000
_cell_angle_beta   90.00000000
_cell_angle_gamma   90.00000000
_symmetry_Int_Tables_number   1
_chemical_formula_structural   CuNiC3
_chemical_formula_sum   'Cu4 Ni4 C12'
_cell_volume   277.39659025
_cell_formula_units_Z   4
loop_
 _symmetry_equiv_pos_site_id
 _symmetry_equiv_pos_as_xyz
  1  'x, y, z'
loop_
 _atom_site_type_symbol
 _atom_site_label
 _atom_site_symmetry_multiplicity
 _atom_site_fract_x
 _atom_site_fract_y
 _atom_site_fract_z
 _atom_site_occupancy
  Ni  Ni0  1  0.98374800  0.05351200  0.25000000  1
  Ni  Ni1  1  0.48374800  0.44648800  0.75000000  1
  Ni  Ni2  1  0.51625200  0.55351200  0.25000000  1
  Ni  Ni3  1  0.01625200  0.94648800  0.75000000  1
  Cu  Cu4  1  0.50000000  0.00000000  0.00000000  1
  Cu  Cu5  1  0.50000000  0.00000000  0.50000000  1
  Cu  Cu6  1  0.00000000  0.50000000  0.00000000  1
  Cu  Cu7  1  0.00000000  0.50000000  0.50000000  1
  C  C8  1  0.64562300  0.07623700  0.75000000  1
  C  C9  1  0.18136400  0.18504700  0.57611300  1
  C  C10  1  0.18136400  0.18504700  0.92388700  1
  C  C11  1  0.68136400  0.31495300  0.07611300  1
  C  C12  1  0.68136400  0.31495300  0.42388700  1
  C  C13  1  0.14562300  0.42376300  0.25000000  1
  C  C14  1  0.85437700  0.57623700  0.75000000  1
  C  C15  1  0.31863600  0.68504700  0.92388700  1
  C  C16  1  0.31863600  0.68504700  0.57611300  1
  C  C17  1  0.81863600  0.81495300  0.07611300  1
  C  C18  1  0.81863600  0.81495300  0.42388700  1
  C  C19  1  0.35437700  0.92376300  0.25000000  1
