# generated using pymatgen
data_Cu2Ni3C16
_symmetry_space_group_name_H-M   'P 1'
_cell_length_a   8.67155760
_cell_length_b   8.67155760
_cell_length_c   6.68507238
_cell_angle_alpha   72.71610646
_cell_angle_beta   72.71610646
_cell_angle_gamma   91.96248279
_symmetry_Int_Tables_number   1
_chemical_formula_structural   Cu2Ni3C16
_chemical_formula_sum   'Cu4 Ni6 C32'
_cell_volume   454.15957450
_cell_formula_units_Z   2
loop_
 _symmetry_equiv_pos_site_id
 _symmetry_equiv_pos_as_xyz
  1  'x, y, z'
loop_
 _atom_site_type_symbol
 _atom_site_label
 _atom_site_symmetry_multiplicity
 _atom_site_fract_x
 _atom_site_fract_y
 _atom_site_fract_z
 _atom_site_occupancy
  C  C0  1  0.48889300  0.51110700  0.75000000  1
  C  C1  1  0.51110700  0.48889300  0.25000000  1
  C  C2  1  0.86789800  0.54255100  0.88295200  1
  C  C3  1  0.54255100  0.86789800  0.38295200  1
  C  C4  1  0.78707900  0.21292100  0.75000000  1
  C  C5  1  0.21292100  0.78707900  0.25000000  1
  C  C6  1  0.45744900  0.13210200  0.61704800  1
  C  C7  1  0.13210200  0.45744900  0.11704800  1
  Ni  Ni8  1  0.60000300  0.82024800  0.89593100  1
  Ni  Ni9  1  0.82024800  0.60000300  0.39593100  1
  Ni  Ni10  1  0.17628600  0.82371400  0.75000000  1
  Ni  Ni11  1  0.82371400  0.17628600  0.25000000  1
  Ni  Ni12  1  0.17975200  0.39999700  0.60406900  1
  Ni  Ni13  1  0.39999700  0.17975200  0.10406900  1
  Cu  Cu14  1  0.87483500  0.87821400  0.81255700  1
  Cu  Cu15  1  0.87821400  0.87483500  0.31255700  1
  Cu  Cu16  1  0.12178600  0.12516500  0.68744300  1
  Cu  Cu17  1  0.12516500  0.12178600  0.18744300  1
  C  C18  1  0.99511800  0.78944600  0.76527200  1
  C  C19  1  0.76326800  0.93463800  0.85276000  1
  C  C20  1  0.78944600  0.99511800  0.26527200  1
  C  C21  1  0.93463800  0.76326800  0.35276000  1
  C  C22  1  0.53707700  0.88972300  0.69997700  1
  C  C23  1  0.63509900  0.64261200  0.92400600  1
  C  C24  1  0.82442400  0.47745900  0.61578500  1
  C  C25  1  0.88972300  0.53707700  0.19997700  1
  C  C26  1  0.64261200  0.63509900  0.42400600  1
  C  C27  1  0.47745900  0.82442400  0.11578500  1
  C  C28  1  0.21233100  0.71730300  0.95914600  1
  C  C29  1  0.28269700  0.78766900  0.54085400  1
  C  C30  1  0.71730300  0.21233100  0.45914600  1
  C  C31  1  0.78766900  0.28269700  0.04085400  1
  C  C32  1  0.52254100  0.17557600  0.88421500  1
  C  C33  1  0.35738800  0.36490100  0.57599400  1
  C  C34  1  0.11027700  0.46292300  0.80002300  1
  C  C35  1  0.17557600  0.52254100  0.38421500  1
  C  C36  1  0.36490100  0.35738800  0.07599400  1
  C  C37  1  0.46292300  0.11027700  0.30002300  1
  C  C38  1  0.06536200  0.23673200  0.64724000  1
  C  C39  1  0.21055400  0.00488200  0.73472800  1
  C  C40  1  0.23673200  0.06536200  0.14724000  1
  C  C41  1  0.00488200  0.21055400  0.23472800  1
