# generated using pymatgen
data_Cu6Ni2C3
_symmetry_space_group_name_H-M   'P 1'
_cell_length_a   9.70986300
_cell_length_b   7.60409700
_cell_length_c   9.19804441
_cell_angle_alpha   58.72892913
_cell_angle_beta   90.00000000
_cell_angle_gamma   90.00000000
_symmetry_Int_Tables_number   1
_chemical_formula_structural   Cu6Ni2C3
_chemical_formula_sum   'Cu24 Ni8 C12'
_cell_volume   580.47115407
_cell_formula_units_Z   4
loop_
 _symmetry_equiv_pos_site_id
 _symmetry_equiv_pos_as_xyz
  1  'x, y, z'
loop_
 _atom_site_type_symbol
 _atom_site_label
 _atom_site_symmetry_multiplicity
 _atom_site_fract_x
 _atom_site_fract_y
 _atom_site_fract_z
 _atom_site_occupancy
  C  C0  1  0.60363600  0.62541700  0.35091500  1
  C  C1  1  0.72211700  0.05368700  0.79966500  1
  C  C2  1  0.10363600  0.37458300  0.14908500  1
  C  C3  1  0.22211700  0.94631300  0.70033500  1
  C  C4  1  0.77788300  0.05368700  0.29966500  1
  C  C5  1  0.89636400  0.62541700  0.85091500  1
  C  C6  1  0.27788300  0.94631300  0.20033500  1
  C  C7  1  0.39636400  0.37458300  0.64908500  1
  C  C8  1  0.13025900  0.52177700  0.43455700  1
  C  C9  1  0.63025900  0.47822300  0.06544300  1
  C  C10  1  0.36974100  0.52177700  0.93455700  1
  C  C11  1  0.86974100  0.47822300  0.56544300  1
  Ni  Ni12  1  0.88498000  0.53211500  0.21985700  1
  Ni  Ni13  1  0.38498000  0.46788500  0.28014300  1
  Ni  Ni14  1  0.00066800  0.07641200  0.66085400  1
  Ni  Ni15  1  0.50066800  0.92358800  0.83914600  1
  Ni  Ni16  1  0.49933200  0.07641200  0.16085400  1
  Ni  Ni17  1  0.99933200  0.92358800  0.33914600  1
  Ni  Ni18  1  0.61502000  0.53211500  0.71985700  1
  Ni  Ni19  1  0.11502000  0.46788500  0.78014300  1
  Cu  Cu20  1  0.33850000  0.46472800  0.41283600  1
  Cu  Cu21  1  0.80038500  0.52045500  0.33307200  1
  Cu  Cu22  1  0.01745600  0.53750400  0.23750600  1
  Cu  Cu23  1  0.51745600  0.46249600  0.26249400  1
  Cu  Cu24  1  0.30038500  0.47954500  0.16692800  1
  Cu  Cu25  1  0.83850000  0.53527200  0.08716400  1
  Cu  Cu26  1  0.88378900  0.16001500  0.66579300  1
  Cu  Cu27  1  0.51541800  0.11894300  0.76016700  1
  Cu  Cu28  1  0.10644600  0.19155900  0.57785800  1
  Cu  Cu29  1  0.60644600  0.80844100  0.92214200  1
  Cu  Cu30  1  0.01541800  0.88105700  0.73983300  1
  Cu  Cu31  1  0.38378900  0.83998500  0.83420700  1
  Cu  Cu32  1  0.61621100  0.16001500  0.16579300  1
  Cu  Cu33  1  0.98458200  0.11894300  0.26016700  1
  Cu  Cu34  1  0.39355400  0.19155900  0.07785800  1
  Cu  Cu35  1  0.89355400  0.80844100  0.42214200  1
  Cu  Cu36  1  0.48458200  0.88105700  0.23983300  1
  Cu  Cu37  1  0.11621100  0.83998500  0.33420700  1
  Cu  Cu38  1  0.16150000  0.46472800  0.91283600  1
  Cu  Cu39  1  0.69961500  0.52045500  0.83307200  1
  Cu  Cu40  1  0.48254400  0.53750400  0.73750600  1
  Cu  Cu41  1  0.98254400  0.46249600  0.76249400  1
  Cu  Cu42  1  0.19961500  0.47954500  0.66692800  1
  Cu  Cu43  1  0.66150000  0.53527200  0.58716400  1
