# generated using pymatgen
data_Cu(NiC15)2
_symmetry_space_group_name_H-M   'P 1'
_cell_length_a   13.23012143
_cell_length_b   13.23012143
_cell_length_c   9.89969500
_cell_angle_alpha   71.03868505
_cell_angle_beta   71.03868505
_cell_angle_gamma   75.31630206
_symmetry_Int_Tables_number   1
_chemical_formula_structural   Cu(NiC15)2
_chemical_formula_sum   'Cu2 Ni4 C60'
_cell_volume   1528.51885904
_cell_formula_units_Z   2
loop_
 _symmetry_equiv_pos_site_id
 _symmetry_equiv_pos_as_xyz
  1  'x, y, z'
loop_
 _atom_site_type_symbol
 _atom_site_label
 _atom_site_symmetry_multiplicity
 _atom_site_fract_x
 _atom_site_fract_y
 _atom_site_fract_z
 _atom_site_occupancy
  C  C0  1  0.93839400  0.68836500  0.43276900  1
  C  C1  1  0.68836500  0.93839400  0.93276900  1
  C  C2  1  0.06484000  0.30780700  0.56281700  1
  C  C3  1  0.30780700  0.06484000  0.06281700  1
  C  C4  1  0.83862900  0.47379100  0.69416100  1
  C  C5  1  0.47379100  0.83862900  0.19416100  1
  C  C6  1  0.16406700  0.52515400  0.30496000  1
  C  C7  1  0.52515400  0.16406700  0.80496000  1
  C  C8  1  0.08751900  0.52141900  0.67211800  1
  C  C9  1  0.52141900  0.08751900  0.17211800  1
  C  C10  1  0.91447800  0.47912400  0.32867700  1
  C  C11  1  0.47912400  0.91447800  0.82867700  1
  C  C12  1  0.48329600  0.48225600  0.22080400  1
  C  C13  1  0.48225500  0.48329600  0.72080400  1
  C  C14  1  0.62125900  0.45585300  0.17918500  1
  C  C15  1  0.45585300  0.62125900  0.67918500  1
  C  C16  1  0.54960800  0.35196200  0.25897200  1
  C  C17  1  0.35196200  0.54960800  0.75897200  1
  C  C18  1  0.54860800  0.43469000  0.35707100  1
  C  C19  1  0.43469000  0.54860800  0.85707100  1
  C  C20  1  0.97018300  0.96974100  0.11890300  1
  C  C21  1  0.96974100  0.97018300  0.61890300  1
  C  C22  1  0.04109900  0.03860900  0.95066900  1
  C  C23  1  0.03860900  0.04109900  0.45066900  1
  C  C24  1  0.92402800  0.00345600  0.96677500  1
  C  C25  1  0.00345600  0.92402800  0.46677500  1
  C  C26  1  0.92620600  0.09958400  0.05025600  1
  C  C27  1  0.09958400  0.92620600  0.55025600  1
  C  C28  1  0.16850800  0.75477100  0.80549300  1
  C  C29  1  0.75477100  0.16850800  0.30549300  1
  C  C30  1  0.25373200  0.83138900  0.74271300  1
  C  C31  1  0.83138900  0.25373200  0.24271300  1
  Ni  Ni32  1  0.55045600  0.43219900  0.25324900  1
  Ni  Ni33  1  0.43219900  0.55045600  0.75324900  1
  Ni  Ni34  1  0.96528100  0.02858900  0.02068300  1
  Ni  Ni35  1  0.02858900  0.96528100  0.52068300  1
  C  C36  1  0.04278400  0.67646500  0.17196700  1
  C  C37  1  0.67646500  0.04278400  0.67196700  1
  C  C38  1  0.96988700  0.38190300  0.85125900  1
  C  C39  1  0.38190300  0.96988700  0.35125900  1
  C  C40  1  0.85441600  0.65560100  0.71039500  1
  C  C41  1  0.65560100  0.85441600  0.21039500  1
  C  C42  1  0.10784500  0.39338000  0.22073300  1
  C  C43  1  0.39338000  0.10784500  0.72073300  1
  C  C44  1  0.74723200  0.57080500  0.48836700  1
  C  C45  1  0.57080500  0.74723200  0.98836700  1
  C  C46  1  0.24868500  0.36869000  0.48211800  1
  C  C47  1  0.36869000  0.24868500  0.98211800  1
  C  C48  1  0.17773200  0.65240400  0.44005000  1
  C  C49  1  0.65240400  0.17773200  0.94005000  1
  C  C50  1  0.86418800  0.29907700  0.62645000  1
  C  C51  1  0.29907700  0.86418800  0.12645000  1
  C  C52  1  0.89636000  0.88797700  0.36476100  1
  C  C53  1  0.88797700  0.89636000  0.86476100  1
  C  C54  1  0.11702500  0.11245200  0.65424200  1
  C  C55  1  0.11245200  0.11702500  0.15424200  1
  C  C56  1  0.67033700  0.45758000  0.88460600  1
  C  C57  1  0.45758000  0.67033700  0.38460600  1
  C  C58  1  0.33752800  0.54996700  0.12018100  1
  C  C59  1  0.54996700  0.33752800  0.62018100  1
  C  C60  1  0.81620800  0.44581400  0.18093600  1
  C  C61  1  0.44581400  0.81620800  0.68093600  1
  C  C62  1  0.17784000  0.55358000  0.83211400  1
  C  C63  1  0.55358000  0.17784000  0.33211400  1
  Cu  Cu64  1  0.17605400  0.83093200  0.76140800  1
  Cu  Cu65  1  0.83093200  0.17605400  0.26140800  1
