# generated using pymatgen
data_Cu2Ni2C21
_symmetry_space_group_name_H-M   'P 1'
_cell_length_a   6.62726700
_cell_length_b   10.25069200
_cell_length_c   10.44057039
_cell_angle_alpha   60.86409876
_cell_angle_beta   90.00000000
_cell_angle_gamma   90.00000000
_symmetry_Int_Tables_number   1
_chemical_formula_structural   Cu2Ni2C21
_chemical_formula_sum   'Cu4 Ni4 C42'
_cell_volume   619.52457327
_cell_formula_units_Z   2
loop_
 _symmetry_equiv_pos_site_id
 _symmetry_equiv_pos_as_xyz
  1  'x, y, z'
loop_
 _atom_site_type_symbol
 _atom_site_label
 _atom_site_symmetry_multiplicity
 _atom_site_fract_x
 _atom_site_fract_y
 _atom_site_fract_z
 _atom_site_occupancy
  C  C0  1  0.48622300  0.73872300  0.99597300  1
  C  C1  1  0.01377700  0.73872300  0.99597300  1
  C  C2  1  0.98622300  0.26127700  0.00402700  1
  C  C3  1  0.51377700  0.26127700  0.00402700  1
  C  C4  1  0.75000000  0.08398000  0.81467000  1
  C  C5  1  0.25000000  0.91602000  0.18533000  1
  C  C6  1  0.00553600  0.74499600  0.51029600  1
  C  C7  1  0.49446400  0.74499600  0.51029600  1
  C  C8  1  0.99446400  0.25500400  0.48970400  1
  C  C9  1  0.50553600  0.25500400  0.48970400  1
  C  C10  1  0.75000000  0.64696200  0.81756300  1
  C  C11  1  0.25000000  0.35303800  0.18243700  1
  C  C12  1  0.75000000  0.65054000  0.31484700  1
  C  C13  1  0.25000000  0.34946000  0.68515300  1
  Ni  Ni14  1  0.25000000  0.57862000  0.81593700  1
  Ni  Ni15  1  0.75000000  0.42138000  0.18406300  1
  Ni  Ni16  1  0.25000000  0.57980200  0.31755500  1
  Ni  Ni17  1  0.75000000  0.42019800  0.68244500  1
  Cu  Cu18  1  0.25000000  0.06928100  0.86232600  1
  Cu  Cu19  1  0.25000000  0.07196000  0.34930900  1
  Cu  Cu20  1  0.75000000  0.93071900  0.13767400  1
  Cu  Cu21  1  0.75000000  0.92804000  0.65069100  1
  C  C22  1  0.75000000  0.86147600  0.79470100  1
  C  C23  1  0.06160900  0.67343300  0.80597900  1
  C  C24  1  0.43839100  0.67343300  0.80597900  1
  C  C25  1  0.75000000  0.57218900  0.03902600  1
  C  C26  1  0.25000000  0.54919700  0.18385000  1
  C  C27  1  0.75000000  0.45080300  0.81615000  1
  C  C28  1  0.25000000  0.42781100  0.96097400  1
  C  C29  1  0.93839100  0.32656700  0.19402100  1
  C  C30  1  0.56160900  0.32656700  0.19402100  1
  C  C31  1  0.25000000  0.16310700  0.91375800  1
  C  C32  1  0.25000000  0.16013300  0.40547000  1
  C  C33  1  0.25000000  0.13852400  0.20529900  1
  C  C34  1  0.75000000  0.07202000  0.05060300  1
  C  C35  1  0.75000000  0.06992300  0.57747100  1
  C  C36  1  0.25000000  0.92798000  0.94939700  1
  C  C37  1  0.25000000  0.93007700  0.42252900  1
  C  C38  1  0.75000000  0.87179200  0.27936000  1
  C  C39  1  0.75000000  0.83689300  0.08624200  1
  C  C40  1  0.75000000  0.83986700  0.59453000  1
  C  C41  1  0.06358700  0.67877300  0.30429500  1
  C  C42  1  0.43641300  0.67877300  0.30429500  1
  C  C43  1  0.75000000  0.57183500  0.53878000  1
  C  C44  1  0.25000000  0.54822400  0.68225700  1
  C  C45  1  0.75000000  0.45177600  0.31774300  1
  C  C46  1  0.25000000  0.42816500  0.46122000  1
  C  C47  1  0.56358700  0.32122700  0.69570500  1
  C  C48  1  0.93641300  0.32122700  0.69570500  1
  C  C49  1  0.25000000  0.12820800  0.72064000  1
