# generated using pymatgen
data_Cu3NiC12
_symmetry_space_group_name_H-M   'P 1'
_cell_length_a   7.86768300
_cell_length_b   10.05672000
_cell_length_c   12.91996788
_cell_angle_alpha   77.33504591
_cell_angle_beta   90.00000000
_cell_angle_gamma   90.00000000
_symmetry_Int_Tables_number   1
_chemical_formula_structural   Cu3NiC12
_chemical_formula_sum   'Cu12 Ni4 C48'
_cell_volume   997.39475125
_cell_formula_units_Z   4
loop_
 _symmetry_equiv_pos_site_id
 _symmetry_equiv_pos_as_xyz
  1  'x, y, z'
loop_
 _atom_site_type_symbol
 _atom_site_label
 _atom_site_symmetry_multiplicity
 _atom_site_fract_x
 _atom_site_fract_y
 _atom_site_fract_z
 _atom_site_occupancy
  C  C0  1  0.47751000  0.57026700  0.14384500  1
  C  C1  1  0.02249000  0.07026700  0.14384500  1
  C  C2  1  0.90785800  0.10908400  0.42870000  1
  C  C3  1  0.59214200  0.60908400  0.42870000  1
  C  C4  1  0.40785800  0.39091600  0.57130000  1
  C  C5  1  0.09214200  0.89091600  0.57130000  1
  C  C6  1  0.97751000  0.92973300  0.85615500  1
  C  C7  1  0.52249000  0.42973300  0.85615500  1
  Ni  Ni8  1  0.08916100  0.38045300  0.17974400  1
  Ni  Ni9  1  0.41083900  0.88045300  0.17974400  1
  Ni  Ni10  1  0.58916100  0.11954700  0.82025600  1
  Ni  Ni11  1  0.91083900  0.61954700  0.82025600  1
  Cu  Cu12  1  0.42908300  0.22979300  0.07890400  1
  Cu  Cu13  1  0.07091700  0.72979300  0.07890400  1
  Cu  Cu14  1  0.59095000  0.11966300  0.28282900  1
  Cu  Cu15  1  0.90905000  0.61966300  0.28282900  1
  Cu  Cu16  1  0.22525800  0.05485300  0.34031800  1
  Cu  Cu17  1  0.27474200  0.55485300  0.34031800  1
  Cu  Cu18  1  0.72525800  0.44514700  0.65968200  1
  Cu  Cu19  1  0.77474200  0.94514700  0.65968200  1
  Cu  Cu20  1  0.09095000  0.38033700  0.71717100  1
  Cu  Cu21  1  0.40905000  0.88033700  0.71717100  1
  Cu  Cu22  1  0.92908300  0.27020700  0.92109600  1
  Cu  Cu23  1  0.57091700  0.77020700  0.92109600  1
  C  C24  1  0.33574500  0.09097600  0.09917300  1
  C  C25  1  0.99598600  0.22469400  0.03273300  1
  C  C26  1  0.32824600  0.34659300  0.11159800  1
  C  C27  1  0.16425500  0.59097600  0.09917300  1
  C  C28  1  0.50401400  0.72469400  0.03273300  1
  C  C29  1  0.17175400  0.84659300  0.11159800  1
  C  C30  1  0.58955400  0.20901100  0.16109500  1
  C  C31  1  0.91044600  0.70901100  0.16109500  1
  C  C32  1  0.09552200  0.14428200  0.26612300  1
  C  C33  1  0.89052000  0.47128000  0.27568200  1
  C  C34  1  0.24229700  0.41969600  0.30222800  1
  C  C35  1  0.40447800  0.64428200  0.26612300  1
  C  C36  1  0.60948000  0.97128000  0.27568200  1
  C  C37  1  0.40250000  0.13999600  0.32864700  1
  C  C38  1  0.25770300  0.91969600  0.30222800  1
  C  C39  1  0.71925000  0.18092600  0.34246700  1
  C  C40  1  0.09750000  0.63999600  0.32864700  1
  C  C41  1  0.78075000  0.68092600  0.34246700  1
  C  C42  1  0.16347600  0.03074600  0.45316500  1
  C  C43  1  0.33652400  0.53074600  0.45316500  1
  C  C44  1  0.66347600  0.46925400  0.54683500  1
  C  C45  1  0.83652400  0.96925400  0.54683500  1
  C  C46  1  0.21925000  0.31907400  0.65753300  1
  C  C47  1  0.90250000  0.36000400  0.67135300  1
  C  C48  1  0.28075000  0.81907400  0.65753300  1
  C  C49  1  0.74229700  0.08030400  0.69777200  1
  C  C50  1  0.59750000  0.86000400  0.67135300  1
  C  C51  1  0.39052000  0.02872000  0.72431800  1
  C  C52  1  0.59552200  0.35571800  0.73387700  1
  C  C53  1  0.75770300  0.58030400  0.69777200  1
  C  C54  1  0.10948000  0.52872000  0.72431800  1
  C  C55  1  0.90447800  0.85571800  0.73387700  1
  C  C56  1  0.08955400  0.29098900  0.83890500  1
  C  C57  1  0.41044600  0.79098900  0.83890500  1
  C  C58  1  0.82824600  0.15340700  0.88840200  1
  C  C59  1  0.49598600  0.27530600  0.96726700  1
  C  C60  1  0.83574500  0.40902400  0.90082700  1
  C  C61  1  0.67175400  0.65340700  0.88840200  1
  C  C62  1  0.00401400  0.77530600  0.96726700  1
  C  C63  1  0.66425500  0.90902400  0.90082700  1
