# generated using pymatgen
data_Cu5NiC20
_symmetry_space_group_name_H-M   'P 1'
_cell_length_a   6.63298600
_cell_length_b   8.65351630
_cell_length_c   9.98749898
_cell_angle_alpha   91.56300725
_cell_angle_beta   90.01335515
_cell_angle_gamma   90.43578501
_symmetry_Int_Tables_number   1
_chemical_formula_structural   Cu5NiC20
_chemical_formula_sum   'Cu10 Ni2 C40'
_cell_volume   573.03905790
_cell_formula_units_Z   2
loop_
 _symmetry_equiv_pos_site_id
 _symmetry_equiv_pos_as_xyz
  1  'x, y, z'
loop_
 _atom_site_type_symbol
 _atom_site_label
 _atom_site_symmetry_multiplicity
 _atom_site_fract_x
 _atom_site_fract_y
 _atom_site_fract_z
 _atom_site_occupancy
  Ni  Ni0  1  0.25512100  0.08500500  0.62163400  1
  Ni  Ni1  1  0.99761200  0.25080600  0.87693100  1
  Cu  Cu2  1  0.25468400  0.07759400  0.12531000  1
  Cu  Cu3  1  0.01860600  0.26365100  0.37952800  1
  Cu  Cu4  1  0.47977900  0.26524400  0.38212500  1
  Cu  Cu5  1  0.48103000  0.26667700  0.88676300  1
  Cu  Cu6  1  0.51718700  0.73915600  0.11695500  1
  Cu  Cu7  1  0.98291000  0.73950000  0.11592700  1
  Cu  Cu8  1  0.51896500  0.73435200  0.61538600  1
  Cu  Cu9  1  0.98135500  0.73490100  0.61553500  1
  Cu  Cu10  1  0.74931200  0.91658100  0.37347700  1
  Cu  Cu11  1  0.74189800  0.91389300  0.87638200  1
  C  C12  1  0.74637000  0.35622400  0.11570400  1
  C  C13  1  0.74906800  0.35813600  0.60961500  1
  C  C14  1  0.25053100  0.64582100  0.38547500  1
  C  C15  1  0.24936900  0.64554900  0.89021800  1
  C  C16  1  0.24975900  0.40549800  0.15069800  1
  C  C17  1  0.25458000  0.41535300  0.64554600  1
  C  C18  1  0.75044000  0.59344100  0.35181700  1
  C  C19  1  0.74518000  0.59595800  0.85461000  1
  C  C20  1  0.74919600  0.04190000  0.13520600  1
  C  C21  1  0.74836800  0.04191800  0.63283200  1
  C  C22  1  0.25021100  0.95169500  0.36035700  1
  C  C23  1  0.25893700  0.95371900  0.86995700  1
  C  C24  1  0.24848100  0.10156200  0.34747400  1
  C  C25  1  0.27849900  0.10088500  0.85241300  1
  C  C26  1  0.75015100  0.08845800  0.01274600  1
  C  C27  1  0.74949100  0.08893500  0.51085600  1
  C  C28  1  0.74630000  0.14113400  0.23502000  1
  C  C29  1  0.74524800  0.14234500  0.73232400  1
  C  C30  1  0.06104900  0.31235300  0.10440900  1
  C  C31  1  0.43122400  0.30948600  0.09728100  1
  C  C32  1  0.06458200  0.32210100  0.59839100  1
  C  C33  1  0.43548200  0.32317200  0.58656100  1
  C  C34  1  0.25484200  0.41353500  0.30764800  1
  C  C35  1  0.75085700  0.42245600  0.39748800  1
  C  C36  1  0.26690100  0.41883000  0.80177300  1
  C  C37  1  0.73221000  0.42752300  0.90399500  1
  C  C38  1  0.25222900  0.57510200  0.10191100  1
  C  C39  1  0.74973200  0.58753000  0.19506700  1
  C  C40  1  0.25105800  0.58551600  0.59991500  1
  C  C41  1  0.74873800  0.58706100  0.69763400  1
  C  C42  1  0.56697600  0.68730200  0.40467500  1
  C  C43  1  0.93514200  0.68768300  0.40502800  1
  C  C44  1  0.56590000  0.69733800  0.90429000  1
  C  C45  1  0.93390800  0.68529700  0.90795700  1
  C  C46  1  0.25059800  0.86229500  0.25346900  1
  C  C47  1  0.24783500  0.85838100  0.76718600  1
  C  C48  1  0.25178500  0.89034000  0.47676200  1
  C  C49  1  0.24945500  0.90124100  0.99058900  1
  C  C50  1  0.75065400  0.89457200  0.16038500  1
  C  C51  1  0.75020800  0.89499900  0.65876700  1
