# generated using pymatgen
data_CuNiC6
_symmetry_space_group_name_H-M   'P 1'
_cell_length_a   10.72899900
_cell_length_b   5.09823400
_cell_length_c   8.14622076
_cell_angle_alpha   51.44930050
_cell_angle_beta   90.00000000
_cell_angle_gamma   90.00000000
_symmetry_Int_Tables_number   1
_chemical_formula_structural   CuNiC6
_chemical_formula_sum   'Cu4 Ni4 C24'
_cell_volume   348.47654695
_cell_formula_units_Z   4
loop_
 _symmetry_equiv_pos_site_id
 _symmetry_equiv_pos_as_xyz
  1  'x, y, z'
loop_
 _atom_site_type_symbol
 _atom_site_label
 _atom_site_symmetry_multiplicity
 _atom_site_fract_x
 _atom_site_fract_y
 _atom_site_fract_z
 _atom_site_occupancy
  C  C0  1  0.83412200  0.30004400  0.01107300  1
  C  C1  1  0.08015300  0.05545600  0.24191900  1
  C  C2  1  0.58015300  0.94454400  0.25808100  1
  C  C3  1  0.33412200  0.69995600  0.48892700  1
  C  C4  1  0.66587800  0.30004400  0.51107300  1
  C  C5  1  0.41984700  0.05545600  0.74191900  1
  C  C6  1  0.91984700  0.94454400  0.75808100  1
  C  C7  1  0.16587800  0.69995600  0.98892700  1
  Ni  Ni8  1  0.41243800  0.44392400  0.24022900  1
  Ni  Ni9  1  0.91243800  0.55607600  0.25977100  1
  Ni  Ni10  1  0.08756200  0.44392400  0.74022900  1
  Ni  Ni11  1  0.58756200  0.55607600  0.75977100  1
  Cu  Cu12  1  0.66677700  0.81045000  0.00770100  1
  Cu  Cu13  1  0.16677700  0.18955000  0.49229900  1
  Cu  Cu14  1  0.83322300  0.81045000  0.50770100  1
  Cu  Cu15  1  0.33322300  0.18955000  0.99229900  1
  C  C16  1  0.33578600  0.79861300  0.01669100  1
  C  C17  1  0.83153300  0.67933900  0.02952900  1
  C  C18  1  0.07030000  0.46226800  0.24989700  1
  C  C19  1  0.40769800  0.10649500  0.22790900  1
  C  C20  1  0.90769800  0.89350500  0.27209100  1
  C  C21  1  0.57030000  0.53773200  0.25010300  1
  C  C22  1  0.33153300  0.32066100  0.47047100  1
  C  C23  1  0.83578600  0.20138700  0.48330900  1
  C  C24  1  0.16421400  0.79861300  0.51669100  1
  C  C25  1  0.66846700  0.67933900  0.52952900  1
  C  C26  1  0.42970000  0.46226800  0.74989700  1
  C  C27  1  0.09230200  0.10649500  0.72790900  1
  C  C28  1  0.59230200  0.89350500  0.77209100  1
  C  C29  1  0.92970000  0.53773200  0.75010300  1
  C  C30  1  0.16846700  0.32066100  0.97047100  1
  C  C31  1  0.66421400  0.20138700  0.98330900  1
