# generated using pymatgen
data_Cu2Ni4C25
_symmetry_space_group_name_H-M   'P 1'
_cell_length_a   2.90734400
_cell_length_b   8.91336000
_cell_length_c   25.07124400
_cell_angle_alpha   90.00000000
_cell_angle_beta   90.00000000
_cell_angle_gamma   90.00000000
_symmetry_Int_Tables_number   1
_chemical_formula_structural   Cu2Ni4C25
_chemical_formula_sum   'Cu4 Ni8 C50'
_cell_volume   649.70132443
_cell_formula_units_Z   2
loop_
 _symmetry_equiv_pos_site_id
 _symmetry_equiv_pos_as_xyz
  1  'x, y, z'
loop_
 _atom_site_type_symbol
 _atom_site_label
 _atom_site_symmetry_multiplicity
 _atom_site_fract_x
 _atom_site_fract_y
 _atom_site_fract_z
 _atom_site_occupancy
  C  C0  1  0.50000000  0.93799400  0.99051000  1
  C  C1  1  0.50000000  0.95072400  0.21272900  1
  C  C2  1  0.50000000  0.04927600  0.71272900  1
  C  C3  1  0.50000000  0.06200600  0.49051000  1
  C  C4  1  0.50000000  0.43134700  0.50070300  1
  C  C5  1  0.50000000  0.43614400  0.29872900  1
  C  C6  1  0.50000000  0.56385600  0.79872900  1
  C  C7  1  0.50000000  0.56865300  0.00070300  1
  C  C8  1  0.50000000  0.75547900  0.10361400  1
  C  C9  1  0.50000000  0.24452100  0.60361400  1
  C  C10  1  0.50000000  0.24318300  0.39160500  1
  C  C11  1  0.00000000  0.39049700  0.69590600  1
  C  C12  1  0.00000000  0.60950300  0.19590600  1
  C  C13  1  0.50000000  0.75681700  0.89160500  1
  Ni  Ni14  1  0.50000000  0.79004400  0.31476200  1
  Ni  Ni15  1  0.00000000  0.88373600  0.58509800  1
  Ni  Ni16  1  0.00000000  0.11626400  0.08509800  1
  Ni  Ni17  1  0.50000000  0.20995600  0.81476200  1
  Ni  Ni18  1  0.50000000  0.26613800  0.19088600  1
  Ni  Ni19  1  0.00000000  0.38539400  0.91500500  1
  Ni  Ni20  1  0.00000000  0.61460600  0.41500500  1
  Ni  Ni21  1  0.50000000  0.73386200  0.69088600  1
  Cu  Cu22  1  0.50000000  0.74718300  0.50052600  1
  Cu  Cu23  1  0.00000000  0.89459800  0.80615000  1
  Cu  Cu24  1  0.00000000  0.10540200  0.30615000  1
  Cu  Cu25  1  0.50000000  0.25281700  0.00052600  1
  C  C26  1  0.50000000  0.75511500  0.42450900  1
  C  C27  1  0.50000000  0.74326200  0.57727300  1
  C  C28  1  0.00000000  0.79803800  0.94027600  1
  C  C29  1  0.00000000  0.80651900  0.15944600  1
  C  C30  1  0.00000000  0.85696700  0.66181700  1
  C  C31  1  0.50000000  0.85545100  0.75937500  1
  C  C32  1  0.00000000  0.89146700  0.50769400  1
  C  C33  1  0.00000000  0.90304300  0.28096100  1
  C  C34  1  0.50000000  0.94203500  0.85573900  1
  C  C35  1  0.50000000  0.97271800  0.08452700  1
  C  C36  1  0.50000000  0.02728200  0.58452700  1
  C  C37  1  0.50000000  0.05796500  0.35573900  1
  C  C38  1  0.00000000  0.09695700  0.78096100  1
  C  C39  1  0.00000000  0.10853300  0.00769400  1
  C  C40  1  0.50000000  0.14454900  0.25937500  1
  C  C41  1  0.00000000  0.14303300  0.16181700  1
  C  C42  1  0.00000000  0.19348100  0.65944600  1
  C  C43  1  0.00000000  0.20196200  0.44027600  1
  C  C44  1  0.50000000  0.25673800  0.07727300  1
  C  C45  1  0.50000000  0.24488500  0.92450900  1
  C  C46  1  0.00000000  0.28985300  0.55701100  1
  C  C47  1  0.00000000  0.30629000  0.33870300  1
  C  C48  1  0.00000000  0.34191200  0.84002300  1
  C  C49  1  0.50000000  0.35450900  0.74347200  1
  C  C50  1  0.00000000  0.39730300  0.99251300  1
  C  C51  1  0.00000000  0.39615200  0.21468300  1
  C  C52  1  0.50000000  0.43042900  0.64247200  1
  C  C53  1  0.50000000  0.47129400  0.41341400  1
  C  C54  1  0.50000000  0.52870600  0.91341400  1
  C  C55  1  0.50000000  0.56957100  0.14247200  1
  C  C56  1  0.00000000  0.60384800  0.71468300  1
  C  C57  1  0.00000000  0.60269700  0.49251300  1
  C  C58  1  0.50000000  0.64549100  0.24347200  1
  C  C59  1  0.00000000  0.65808800  0.34002300  1
  C  C60  1  0.00000000  0.69371000  0.83870300  1
  C  C61  1  0.00000000  0.71014700  0.05701100  1
