# generated using pymatgen
data_Cu(NiC6)5
_symmetry_space_group_name_H-M   'P 1'
_cell_length_a   8.86578279
_cell_length_b   8.86578279
_cell_length_c   8.26034051
_cell_angle_alpha   62.26613780
_cell_angle_beta   62.26613780
_cell_angle_gamma   42.15371034
_symmetry_Int_Tables_number   1
_chemical_formula_structural   Cu(NiC6)5
_chemical_formula_sum   'Cu1 Ni5 C30'
_cell_volume   377.68593740
_cell_formula_units_Z   1
loop_
 _symmetry_equiv_pos_site_id
 _symmetry_equiv_pos_as_xyz
  1  'x, y, z'
loop_
 _atom_site_type_symbol
 _atom_site_label
 _atom_site_symmetry_multiplicity
 _atom_site_fract_x
 _atom_site_fract_y
 _atom_site_fract_z
 _atom_site_occupancy
  C  C0  1  0.24209300  0.74096500  0.30098200  1
  C  C1  1  0.74096500  0.24209300  0.30098200  1
  C  C2  1  0.40129700  0.90020400  0.71676900  1
  C  C3  1  0.90020400  0.40129700  0.71676900  1
  C  C4  1  0.10802700  0.60845300  0.98239700  1
  C  C5  1  0.60845300  0.10802700  0.98239700  1
  Ni  Ni6  1  0.17951700  0.17951700  0.01219000  1
  Ni  Ni7  1  0.50600700  0.50600700  0.62770000  1
  Ni  Ni8  1  0.00609200  0.00609200  0.62866000  1
  Ni  Ni9  1  0.81438900  0.81438900  0.35936400  1
  Ni  Ni10  1  0.31391600  0.31391600  0.35990500  1
  Cu  Cu11  1  0.68025300  0.68025300  0.00850900  1
  C  C12  1  0.58478500  0.08090800  0.66757300  1
  C  C13  1  0.08090800  0.58478500  0.66757300  1
  C  C14  1  0.41804300  0.91548200  0.33186000  1
  C  C15  1  0.91548200  0.41804300  0.33186000  1
  C  C16  1  0.99993800  0.99993800  0.00004500  1
  C  C17  1  0.50019200  0.50019200  0.00177700  1
  C  C18  1  0.46028900  0.46028900  0.19516800  1
  C  C19  1  0.96108200  0.96108200  0.19367600  1
  C  C20  1  0.03999200  0.54007000  0.55960200  1
  C  C21  1  0.54007000  0.03999200  0.55960200  1
  C  C22  1  0.09660000  0.09660000  0.88419600  1
  C  C23  1  0.59736500  0.59736500  0.88930100  1
  C  C24  1  0.67976200  0.17933000  0.58172000  1
  C  C25  1  0.17933000  0.67976200  0.58172000  1
  C  C26  1  0.02498600  0.53288900  0.86134800  1
  C  C27  1  0.53288900  0.02498600  0.86134800  1
  C  C28  1  0.37820700  0.87359000  0.21988900  1
  C  C29  1  0.87359000  0.37820700  0.21988900  1
  C  C30  1  0.44367700  0.44367700  0.92092900  1
  C  C31  1  0.94209100  0.94209100  0.92206800  1
  C  C32  1  0.51389200  0.01322800  0.25013800  1
  C  C33  1  0.01322800  0.51389200  0.25013800  1
  C  C34  1  0.36137300  0.86101500  0.52597500  1
  C  C35  1  0.86101500  0.36137300  0.52597500  1
