# generated using pymatgen
data_Cu6Ni3C2
_symmetry_space_group_name_H-M   'P 1'
_cell_length_a   7.57173064
_cell_length_b   7.56374018
_cell_length_c   7.36898142
_cell_angle_alpha   60.91932847
_cell_angle_beta   60.81079408
_cell_angle_gamma   58.26987746
_symmetry_Int_Tables_number   1
_chemical_formula_structural   Cu6Ni3C2
_chemical_formula_sum   'Cu12 Ni6 C4'
_cell_volume   298.01567403
_cell_formula_units_Z   2
loop_
 _symmetry_equiv_pos_site_id
 _symmetry_equiv_pos_as_xyz
  1  'x, y, z'
loop_
 _atom_site_type_symbol
 _atom_site_label
 _atom_site_symmetry_multiplicity
 _atom_site_fract_x
 _atom_site_fract_y
 _atom_site_fract_z
 _atom_site_occupancy
  C  C0  1  0.25000000  0.25000000  0.25000000  1
  C  C1  1  0.75000000  0.75000000  0.75000000  1
  C  C2  1  0.50000000  0.50000000  0.50000000  1
  C  C3  1  0.00000000  0.00000000  0.00000000  1
  Ni  Ni4  1  0.80131900  0.19868100  0.80131900  1
  Ni  Ni5  1  0.19868100  0.80131900  0.19868100  1
  Ni  Ni6  1  0.77949300  0.77949300  0.22050700  1
  Ni  Ni7  1  0.22050700  0.22050700  0.77949300  1
  Ni  Ni8  1  0.80127600  0.19872400  0.19872400  1
  Ni  Ni9  1  0.19872400  0.80127600  0.80127600  1
  Cu  Cu10  1  0.16354200  0.64060700  0.83645800  1
  Cu  Cu11  1  0.83645800  0.35939300  0.16354200  1
  Cu  Cu12  1  0.64060700  0.16354200  0.35939300  1
  Cu  Cu13  1  0.61487300  0.82014400  0.17985600  1
  Cu  Cu14  1  0.82014400  0.61487300  0.38512700  1
  Cu  Cu15  1  0.17985600  0.38512700  0.61487300  1
  Cu  Cu16  1  0.36450500  0.63549500  0.15786800  1
  Cu  Cu17  1  0.84213200  0.15786800  0.63549500  1
  Cu  Cu18  1  0.15786800  0.84213200  0.36450500  1
  Cu  Cu19  1  0.63549500  0.36450500  0.84213200  1
  Cu  Cu20  1  0.38512700  0.17985600  0.82014400  1
  Cu  Cu21  1  0.35939300  0.83645800  0.64060700  1
