# generated using pymatgen
data_Cu2Ni3C23
_symmetry_space_group_name_H-M   'P 1'
_cell_length_a   5.85318547
_cell_length_b   5.85318547
_cell_length_c   9.64504481
_cell_angle_alpha   89.87467311
_cell_angle_beta   89.87467311
_cell_angle_gamma   60.13835968
_symmetry_Int_Tables_number   1
_chemical_formula_structural   Cu2Ni3C23
_chemical_formula_sum   'Cu2 Ni3 C23'
_cell_volume   286.56416043
_cell_formula_units_Z   1
loop_
 _symmetry_equiv_pos_site_id
 _symmetry_equiv_pos_as_xyz
  1  'x, y, z'
loop_
 _atom_site_type_symbol
 _atom_site_label
 _atom_site_symmetry_multiplicity
 _atom_site_fract_x
 _atom_site_fract_y
 _atom_site_fract_z
 _atom_site_occupancy
  C  C0  1  0.66920800  0.66920800  0.88531700  1
  C  C1  1  0.99606500  0.99606500  0.99776500  1
  C  C2  1  0.99632300  0.99632300  0.49959500  1
  C  C3  1  0.33605600  0.33605600  0.38773800  1
  C  C4  1  0.83167600  0.33798900  0.21483300  1
  C  C5  1  0.33798900  0.83167600  0.21483300  1
  C  C6  1  0.16978100  0.16978100  0.71400500  1
  Ni  Ni7  1  0.83072200  0.83072200  0.21516600  1
  Ni  Ni8  1  0.66266300  0.16856200  0.71514100  1
  Ni  Ni9  1  0.16856200  0.66266300  0.71514100  1
  Cu  Cu10  1  0.66637900  0.66637900  0.49028900  1
  Cu  Cu11  1  0.33350000  0.33350000  0.98763600  1
  C  C12  1  0.83977700  0.31810300  0.60704500  1
  C  C13  1  0.51850500  0.51850500  0.33124500  1
  C  C14  1  0.66881200  0.66881200  0.10390900  1
  C  C15  1  0.99586200  0.99586200  0.31426400  1
  C  C16  1  0.99590700  0.99590700  0.81235600  1
  C  C17  1  0.31810300  0.83977700  0.60704500  1
  C  C18  1  0.96475100  0.52069100  0.33280800  1
  C  C19  1  0.52069100  0.96475100  0.33280800  1
  C  C20  1  0.15987600  0.15987600  0.10577700  1
  C  C21  1  0.84042600  0.84042600  0.60915900  1
  C  C22  1  0.48477300  0.03613600  0.83123100  1
  C  C23  1  0.03613600  0.48477300  0.83123100  1
  C  C24  1  0.33717200  0.33717200  0.60605500  1
  C  C25  1  0.68097400  0.15728100  0.10769800  1
  C  C26  1  0.48207800  0.48207800  0.82999000  1
  C  C27  1  0.15728100  0.68097400  0.10769800  1
