# generated using pymatgen
data_Cu3Ni3C22
_symmetry_space_group_name_H-M   'P 1'
_cell_length_a   6.05770344
_cell_length_b   6.05770344
_cell_length_c   9.82834915
_cell_angle_alpha   89.62655486
_cell_angle_beta   89.62655486
_cell_angle_gamma   59.20530105
_symmetry_Int_Tables_number   1
_chemical_formula_structural   Cu3Ni3C22
_chemical_formula_sum   'Cu3 Ni3 C22'
_cell_volume   309.79986784
_cell_formula_units_Z   1
loop_
 _symmetry_equiv_pos_site_id
 _symmetry_equiv_pos_as_xyz
  1  'x, y, z'
loop_
 _atom_site_type_symbol
 _atom_site_label
 _atom_site_symmetry_multiplicity
 _atom_site_fract_x
 _atom_site_fract_y
 _atom_site_fract_z
 _atom_site_occupancy
  C  C0  1  0.66763400  0.66763400  0.90124400  1
  C  C1  1  0.00433500  0.00433500  0.99109500  1
  C  C2  1  0.00840000  0.00840000  0.49200700  1
  C  C3  1  0.33479800  0.33479800  0.38848200  1
  C  C4  1  0.65773900  0.65773900  0.49517800  1
  C  C5  1  0.32719000  0.32719000  0.00032000  1
  Ni  Ni6  1  0.82667800  0.82667800  0.22301500  1
  Ni  Ni7  1  0.63535800  0.18231200  0.71582000  1
  Ni  Ni8  1  0.18231200  0.63535800  0.71582000  1
  Cu  Cu9  1  0.81881400  0.34958900  0.21166100  1
  Cu  Cu10  1  0.34958900  0.81881400  0.21166100  1
  Cu  Cu11  1  0.17244500  0.17244500  0.71164800  1
  C  C12  1  0.82136500  0.34018200  0.59475200  1
  C  C13  1  0.52501000  0.52501000  0.35116100  1
  C  C14  1  0.67662200  0.67662200  0.09783600  1
  C  C15  1  0.99877200  0.99877200  0.30645100  1
  C  C16  1  0.00119900  0.00119900  0.80620200  1
  C  C17  1  0.34018200  0.82136500  0.59475200  1
  C  C18  1  0.96482900  0.52300300  0.34299400  1
  C  C19  1  0.52300300  0.96482900  0.34299400  1
  C  C20  1  0.16949900  0.16949900  0.09271600  1
  C  C21  1  0.82952000  0.82952000  0.59309700  1
  C  C22  1  0.48850500  0.04099000  0.84706500  1
  C  C23  1  0.04099000  0.48850500  0.84706500  1
  C  C24  1  0.32776800  0.32776800  0.58124700  1
  C  C25  1  0.65692800  0.16213400  0.09723300  1
  C  C26  1  0.48695200  0.48695200  0.85710700  1
  C  C27  1  0.16213400  0.65692800  0.09723300  1
