# generated using pymatgen
data_Cu16Ni4C5
_symmetry_space_group_name_H-M   'P 1'
_cell_length_a   7.85280500
_cell_length_b   7.85280500
_cell_length_c   30.34509300
_cell_angle_alpha   90.00000000
_cell_angle_beta   90.00000000
_cell_angle_gamma   90.00000000
_symmetry_Int_Tables_number   1
_chemical_formula_structural   Cu16Ni4C5
_chemical_formula_sum   'Cu64 Ni16 C20'
_cell_volume   1871.27708453
_cell_formula_units_Z   4
loop_
 _symmetry_equiv_pos_site_id
 _symmetry_equiv_pos_as_xyz
  1  'x, y, z'
loop_
 _atom_site_type_symbol
 _atom_site_label
 _atom_site_symmetry_multiplicity
 _atom_site_fract_x
 _atom_site_fract_y
 _atom_site_fract_z
 _atom_site_occupancy
  C  C0  1  0.88350500  0.93881700  0.46473500  1
  C  C1  1  0.11649500  0.06118300  0.96473500  1
  C  C2  1  0.93881700  0.11649500  0.21473500  1
  C  C3  1  0.06118300  0.88350500  0.71473500  1
  C  C4  1  0.38896600  0.63136900  0.45441400  1
  C  C5  1  0.61103400  0.36863100  0.95441400  1
  C  C6  1  0.63136900  0.61103400  0.20441400  1
  C  C7  1  0.36863100  0.38896600  0.70441400  1
  C  C8  1  0.98013700  0.46700700  0.83431400  1
  C  C9  1  0.01986300  0.53299300  0.33431400  1
  C  C10  1  0.46700700  0.01986300  0.58431400  1
  C  C11  1  0.53299300  0.98013700  0.08431400  1
  C  C12  1  0.47845200  0.77586000  0.82617600  1
  C  C13  1  0.52154800  0.22414000  0.32617600  1
  C  C14  1  0.77586000  0.52154800  0.57617600  1
  C  C15  1  0.22414000  0.47845200  0.07617600  1
  C  C16  1  0.87128400  0.71867200  0.02002400  1
  C  C17  1  0.12871600  0.28132800  0.52002400  1
  C  C18  1  0.71867200  0.12871600  0.77002400  1
  C  C19  1  0.28132800  0.87128400  0.27002400  1
  Ni  Ni20  1  0.12764900  0.54072100  0.95290100  1
  Ni  Ni21  1  0.87235100  0.45927900  0.45290100  1
  Ni  Ni22  1  0.54072100  0.87235100  0.70290100  1
  Ni  Ni23  1  0.45927900  0.12764900  0.20290100  1
  Ni  Ni24  1  0.11994000  0.59460300  0.20677100  1
  Ni  Ni25  1  0.88006000  0.40539700  0.70677100  1
  Ni  Ni26  1  0.59460300  0.88006000  0.95677100  1
  Ni  Ni27  1  0.40539700  0.11994000  0.45677100  1
  Ni  Ni28  1  0.99352800  0.96105400  0.83574200  1
  Ni  Ni29  1  0.00647200  0.03894600  0.33574200  1
  Ni  Ni30  1  0.96105400  0.00647200  0.58574200  1
  Ni  Ni31  1  0.03894600  0.99352800  0.08574200  1
  Ni  Ni32  1  0.70021700  0.45776700  0.08460800  1
  Ni  Ni33  1  0.29978300  0.54223300  0.58460800  1
  Ni  Ni34  1  0.45776700  0.29978300  0.83460800  1
  Ni  Ni35  1  0.54223300  0.70021700  0.33460800  1
  Cu  Cu36  1  0.25218900  0.42801300  0.97507900  1
  Cu  Cu37  1  0.74781100  0.57198700  0.47507900  1
  Cu  Cu38  1  0.42801300  0.74781100  0.72507900  1
  Cu  Cu39  1  0.57198700  0.25218900  0.22507900  1
  Cu  Cu40  1  0.20465900  0.61674200  0.91210300  1
  Cu  Cu41  1  0.79534100  0.38325800  0.41210300  1
  Cu  Cu42  1  0.61674200  0.79534100  0.66210300  1
  Cu  Cu43  1  0.38325800  0.20465900  0.16210300  1
  Cu  Cu44  1  0.07631300  0.67883600  0.98384700  1
  Cu  Cu45  1  0.92368700  0.32116400  0.48384700  1
  Cu  Cu46  1  0.67883600  0.92368700  0.73384700  1
  Cu  Cu47  1  0.32116400  0.07631300  0.23384700  1
  Cu  Cu48  1  0.97738400  0.44076900  0.93805500  1
  Cu  Cu49  1  0.02261600  0.55923100  0.43805500  1
  Cu  Cu50  1  0.44076900  0.02261600  0.68805500  1
  Cu  Cu51  1  0.55923100  0.97738400  0.18805500  1
  Cu  Cu52  1  0.25447200  0.65480600  0.23743200  1
  Cu  Cu53  1  0.74552800  0.34519400  0.73743200  1
  Cu  Cu54  1  0.65480600  0.74552800  0.98743200  1
  Cu  Cu55  1  0.34519400  0.25447200  0.48743200  1
  Cu  Cu56  1  0.02111200  0.74006400  0.18829900  1
  Cu  Cu57  1  0.97888800  0.25993600  0.68829900  1
  Cu  Cu58  1  0.74006400  0.97888800  0.93829900  1
  Cu  Cu59  1  0.25993600  0.02111200  0.43829900  1
  Cu  Cu60  1  0.99778600  0.48336900  0.23095300  1
  Cu  Cu61  1  0.00221400  0.51663100  0.73095300  1
  Cu  Cu62  1  0.48336900  0.00221400  0.98095300  1
  Cu  Cu63  1  0.51663100  0.99778600  0.48095300  1
  Cu  Cu64  1  0.19896700  0.50272200  0.16953300  1
  Cu  Cu65  1  0.80103300  0.49727800  0.66953300  1
  Cu  Cu66  1  0.50272200  0.80103300  0.91953300  1
  Cu  Cu67  1  0.49727800  0.19896700  0.41953300  1
  Cu  Cu68  1  0.11147200  0.83667300  0.81502900  1
  Cu  Cu69  1  0.88852800  0.16332700  0.31502900  1
  Cu  Cu70  1  0.83667300  0.88852800  0.56502900  1
  Cu  Cu71  1  0.16332700  0.11147200  0.06502900  1
  Cu  Cu72  1  0.84674400  0.86451700  0.85445600  1
  Cu  Cu73  1  0.15325600  0.13548300  0.35445600  1
  Cu  Cu74  1  0.86451700  0.15325600  0.60445600  1
  Cu  Cu75  1  0.13548300  0.84674400  0.10445600  1
  Cu  Cu76  1  0.07780600  0.05348500  0.87231000  1
  Cu  Cu77  1  0.92219400  0.94651500  0.37231000  1
  Cu  Cu78  1  0.05348500  0.92219400  0.62231000  1
  Cu  Cu79  1  0.94651500  0.07780600  0.12231000  1
  Cu  Cu80  1  0.93452000  0.08592400  0.80199700  1
  Cu  Cu81  1  0.06548000  0.91407600  0.30199700  1
  Cu  Cu82  1  0.08592400  0.06548000  0.55199700  1
  Cu  Cu83  1  0.91407600  0.93452000  0.05199700  1
  Cu  Cu84  1  0.59814200  0.60816600  0.09917400  1
  Cu  Cu85  1  0.40185800  0.39183400  0.59917400  1
  Cu  Cu86  1  0.60816600  0.40185800  0.84917400  1
  Cu  Cu87  1  0.39183400  0.59814200  0.34917400  1
  Cu  Cu88  1  0.84510900  0.51117200  0.05603000  1
  Cu  Cu89  1  0.15489100  0.48882800  0.55603000  1
  Cu  Cu90  1  0.51117200  0.15489100  0.80603000  1
  Cu  Cu91  1  0.48882800  0.84510900  0.30603000  1
  Cu  Cu92  1  0.76722000  0.37794900  0.12596400  1
  Cu  Cu93  1  0.23278000  0.62205100  0.62596400  1
  Cu  Cu94  1  0.37794900  0.23278000  0.87596400  1
  Cu  Cu95  1  0.62205100  0.76722000  0.37596400  1
  Cu  Cu96  1  0.59109900  0.33702100  0.06017400  1
  Cu  Cu97  1  0.40890100  0.66297900  0.56017400  1
  Cu  Cu98  1  0.33702100  0.40890100  0.81017400  1
  Cu  Cu99  1  0.66297900  0.59109900  0.31017400  1
