# generated using pymatgen
data_CuNi3C8
_symmetry_space_group_name_H-M   'P 1'
_cell_length_a   5.79111191
_cell_length_b   5.79111191
_cell_length_c   8.95734200
_cell_angle_alpha   90.00000000
_cell_angle_beta   90.00000000
_cell_angle_gamma   119.99999893
_symmetry_Int_Tables_number   1
_chemical_formula_structural   CuNi3C8
_chemical_formula_sum   'Cu2 Ni6 C16'
_cell_volume   260.15591653
_cell_formula_units_Z   2
loop_
 _symmetry_equiv_pos_site_id
 _symmetry_equiv_pos_as_xyz
  1  'x, y, z'
loop_
 _atom_site_type_symbol
 _atom_site_label
 _atom_site_symmetry_multiplicity
 _atom_site_fract_x
 _atom_site_fract_y
 _atom_site_fract_z
 _atom_site_occupancy
  Ni  Ni0  1  0.16802900  0.83197100  0.21074400  1
  Ni  Ni1  1  0.16802900  0.33605900  0.21074400  1
  Ni  Ni2  1  0.66394100  0.83197100  0.21074400  1
  Ni  Ni3  1  0.33605900  0.16802900  0.71074400  1
  Ni  Ni4  1  0.83197100  0.66394100  0.71074400  1
  Ni  Ni5  1  0.83197100  0.16802900  0.71074400  1
  Cu  Cu6  1  0.33333300  0.66666700  0.49282000  1
  Cu  Cu7  1  0.66666700  0.33333300  0.99282000  1
  C  C8  1  0.16812400  0.83187600  0.59995500  1
  C  C9  1  0.04170200  0.52085100  0.33747700  1
  C  C10  1  0.33333300  0.66666700  0.10226300  1
  C  C11  1  0.00000000  0.00000000  0.31623300  1
  C  C12  1  0.00000000  0.00000000  0.81623300  1
  C  C13  1  0.16812400  0.33624900  0.59995500  1
  C  C14  1  0.47914900  0.95829800  0.33747700  1
  C  C15  1  0.47914900  0.52085100  0.33747700  1
  C  C16  1  0.33624900  0.16812400  0.09995500  1
  C  C17  1  0.66375100  0.83187600  0.59995500  1
  C  C18  1  0.52085100  0.47914900  0.83747700  1
  C  C19  1  0.52085100  0.04170200  0.83747700  1
  C  C20  1  0.66666700  0.33333300  0.60226300  1
  C  C21  1  0.83187600  0.66375100  0.09995500  1
  C  C22  1  0.95829800  0.47914900  0.83747700  1
  C  C23  1  0.83187600  0.16812400  0.09995500  1
