# generated using pymatgen
data_Cu15Ni8C27
_symmetry_space_group_name_H-M   'P 1'
_cell_length_a   9.08642216
_cell_length_b   9.08642216
_cell_length_c   32.36221583
_cell_angle_alpha   86.61233822
_cell_angle_beta   93.38766178
_cell_angle_gamma   125.94170516
_symmetry_Int_Tables_number   1
_chemical_formula_structural   Cu15Ni8C27
_chemical_formula_sum   'Cu60 Ni32 C108'
_cell_volume   2158.46355522
_cell_formula_units_Z   4
loop_
 _symmetry_equiv_pos_site_id
 _symmetry_equiv_pos_as_xyz
  1  'x, y, z'
loop_
 _atom_site_type_symbol
 _atom_site_label
 _atom_site_symmetry_multiplicity
 _atom_site_fract_x
 _atom_site_fract_y
 _atom_site_fract_z
 _atom_site_occupancy
  C  C0  1  0.15588027  0.68631473  0.62113893  1
  C  C1  1  0.68631473  0.15588027  0.87886107  1
  C  C2  1  0.84411973  0.31368527  0.37886107  1
  C  C3  1  0.31368527  0.84411973  0.12113893  1
  C  C4  1  0.38833759  0.18253251  0.73397417  1
  C  C5  1  0.18253251  0.38833759  0.76602583  1
  C  C6  1  0.61166241  0.81746749  0.26602583  1
  C  C7  1  0.81746749  0.61166241  0.23397417  1
  C  C8  1  0.37086990  0.98904874  0.72051683  1
  C  C9  1  0.98904874  0.37086990  0.77948317  1
  C  C10  1  0.62913010  0.01095126  0.27948317  1
  C  C11  1  0.01095126  0.62913010  0.22051683  1
  C  C12  1  0.27419851  0.30549786  0.68337495  1
  C  C13  1  0.30549786  0.27419851  0.81662505  1
  C  C14  1  0.72580149  0.69450214  0.31662505  1
  C  C15  1  0.69450214  0.72580149  0.18337495  1
  C  C16  1  0.20267198  0.20828208  0.63456086  1
  C  C17  1  0.20828208  0.20267198  0.86543914  1
  C  C18  1  0.79732802  0.79171792  0.36543914  1
  C  C19  1  0.79171792  0.79732802  0.13456086  1
  C  C20  1  0.65663958  0.33405519  0.57682731  1
  C  C21  1  0.33405519  0.65663958  0.92317269  1
  C  C22  1  0.34336042  0.66594481  0.42317269  1
  C  C23  1  0.66594481  0.34336042  0.07682731  1
  C  C24  1  0.46661526  0.18170018  0.60729874  1
  C  C25  1  0.18170018  0.46661526  0.89270126  1
  C  C26  1  0.53338474  0.81829982  0.39270126  1
  C  C27  1  0.81829982  0.53338474  0.10729874  1
  C  C28  1  0.77080682  0.21191856  0.53493296  1
  C  C29  1  0.21191856  0.77080682  0.96506704  1
  C  C30  1  0.22919318  0.78808144  0.46506704  1
  C  C31  1  0.78808144  0.22919318  0.03493296  1
  C  C32  1  0.62715954  0.97689478  0.52893670  1
  C  C33  1  0.97689478  0.62715954  0.97106330  1
  C  C34  1  0.37284046  0.02310522  0.47106330  1
  C  C35  1  0.02310522  0.37284046  0.02893670  1
  C  C36  1  0.54751376  0.63111848  0.63535576  1
  C  C37  1  0.63111848  0.54751376  0.86464424  1
  C  C38  1  0.45248624  0.36888152  0.36464424  1
  C  C39  1  0.36888152  0.45248624  0.13535576  1
  C  C40  1  0.67332944  0.61963146  0.59776171  1
  C  C41  1  0.61963146  0.67332944  0.90223829  1
  C  C42  1  0.32667056  0.38036854  0.40223829  1
  C  C43  1  0.38036854  0.32667056  0.09776171  1
  C  C44  1  0.60732144  0.59590149  0.70701324  1
  C  C45  1  0.59590149  0.60732144  0.79298676  1
  C  C46  1  0.39267856  0.40409851  0.29298676  1
  C  C47  1  0.40409851  0.39267856  0.20701324  1
  C  C48  1  0.79375011  0.59105796  0.71980515  1
  C  C49  1  0.59105796  0.79375011  0.78019485  1
  C  C50  1  0.20624989  0.40894204  0.28019485  1
  C  C51  1  0.40894204  0.20624989  0.21980515  1
  C  C52  1  0.69443988  0.95560499  0.65306407  1
  C  C53  1  0.95560499  0.69443988  0.84693593  1
  C  C54  1  0.30556012  0.04439501  0.34693593  1
  C  C55  1  0.04439501  0.30556012  0.15306407  1
  C  C56  1  0.87084220  0.07041130  0.61643346  1
  C  C57  1  0.07041130  0.87084220  0.88356654  1
  C  C58  1  0.12915780  0.92958870  0.38356654  1
  C  C59  1  0.92958870  0.12915780  0.11643346  1
  C  C60  1  0.71078873  0.13200617  0.70796651  1
  C  C61  1  0.13200617  0.71078873  0.79203349  1
  C  C62  1  0.28921127  0.86799383  0.29203349  1
  C  C63  1  0.86799383  0.28921127  0.20796651  1
  C  C64  1  0.86884482  0.36945396  0.70296507  1
  C  C65  1  0.36945396  0.86884482  0.79703493  1
  C  C66  1  0.13115518  0.63054604  0.29703493  1
  C  C67  1  0.63054604  0.13115518  0.20296507  1
  C  C68  1  0.21419597  0.41305754  0.58075352  1
  C  C69  1  0.41305754  0.21419597  0.91924648  1
  C  C70  1  0.78580403  0.58694246  0.41924648  1
  C  C71  1  0.58694246  0.78580403  0.08075352  1
  C  C72  1  0.36557128  0.60064385  0.55892789  1
  C  C73  1  0.60064385  0.36557128  0.94107211  1
  C  C74  1  0.63442872  0.39935615  0.44107211  1
  C  C75  1  0.39935615  0.63442872  0.05892789  1
  C  C76  1  0.03227678  0.17476255  0.54806804  1
  C  C77  1  0.17476255  0.03227678  0.95193196  1
  C  C78  1  0.96772322  0.82523745  0.45193196  1
  C  C79  1  0.82523745  0.96772322  0.04806804  1
  C  C80  1  0.04343097  0.02575289  0.57227598  1
  C  C81  1  0.02575289  0.04343097  0.92772402  1
  C  C82  1  0.95656903  0.97424711  0.42772402  1
  C  C83  1  0.97424711  0.95656903  0.07227598  1
  C  C84  1  0.28228025  0.08520461  0.67508504  1
  C  C85  1  0.08520461  0.28228025  0.82491496  1
  C  C86  1  0.71771975  0.91479539  0.32491496  1
  C  C87  1  0.91479539  0.71771975  0.17508504  1
  C  C88  1  0.53714324  0.06324935  0.57007930  1
  C  C89  1  0.06324935  0.53714324  0.92992070  1
  C  C90  1  0.46285676  0.93675065  0.42992070  1
  C  C91  1  0.93675065  0.46285676  0.07007930  1
  C  C92  1  0.75220931  0.61154222  0.65792270  1
  C  C93  1  0.61154222  0.75220931  0.84207730  1
  C  C94  1  0.24779069  0.38845778  0.34207730  1
  C  C95  1  0.38845778  0.24779069  0.15792270  1
  C  C96  1  0.87963663  0.23245102  0.65786179  1
  C  C97  1  0.23245102  0.87963663  0.84213821  1
  C  C98  1  0.12036337  0.76754898  0.34213821  1
  C  C99  1  0.76754898  0.12036337  0.15786179  1
  C  C100  1  0.36738693  0.69364354  0.70466762  1
  C  C101  1  0.69364354  0.36738693  0.79533238  1
  C  C102  1  0.63261307  0.30635646  0.29533238  1
  C  C103  1  0.30635646  0.63261307  0.20466762  1
  C  C104  1  0.92606764  0.67227824  0.54056208  1
  C  C105  1  0.67227824  0.92606764  0.95943792  1
  C  C106  1  0.07393236  0.32772176  0.45943792  1
  C  C107  1  0.32772176  0.07393236  0.04056208  1
  Ni  Ni108  1  0.34345271  0.08174700  0.71359980  1
  Ni  Ni109  1  0.08174700  0.34345271  0.78640020  1
  Ni  Ni110  1  0.65654729  0.91825300  0.28640020  1
  Ni  Ni111  1  0.91825300  0.65654729  0.21359980  1
  Ni  Ni112  1  0.25464300  0.21212448  0.66354898  1
  Ni  Ni113  1  0.21212448  0.25464300  0.83645102  1
  Ni  Ni114  1  0.74535700  0.78787552  0.33645102  1
  Ni  Ni115  1  0.78787552  0.74535700  0.16354898  1
  Ni  Ni116  1  0.56267514  0.20619147  0.58791453  1
  Ni  Ni117  1  0.20619147  0.56267514  0.91208547  1
  Ni  Ni118  1  0.43732486  0.79380853  0.41208547  1
  Ni  Ni119  1  0.79380853  0.43732486  0.08791453  1
  Ni  Ni120  1  0.65276675  0.08942812  0.54178590  1
  Ni  Ni121  1  0.08942812  0.65276675  0.95821410  1
  Ni  Ni122  1  0.34723325  0.91057188  0.45821410  1
  Ni  Ni123  1  0.91057188  0.34723325  0.04178590  1
  Ni  Ni124  1  0.64738756  0.61858686  0.62823978  1
  Ni  Ni125  1  0.61858686  0.64738756  0.87176022  1
  Ni  Ni126  1  0.35261244  0.38141314  0.37176022  1
  Ni  Ni127  1  0.38141314  0.35261244  0.12823978  1
  Ni  Ni128  1  0.72227681  0.61303540  0.69800966  1
  Ni  Ni129  1  0.61303540  0.72227681  0.80199034  1
  Ni  Ni130  1  0.27772319  0.38696460  0.30199034  1
  Ni  Ni131  1  0.38696460  0.27772319  0.19800966  1
  Ni  Ni132  1  0.81256060  0.06989700  0.64276950  1
  Ni  Ni133  1  0.06989700  0.81256060  0.85723050  1
  Ni  Ni134  1  0.18743940  0.93010300  0.35723050  1
  Ni  Ni135  1  0.93010300  0.18743940  0.14276950  1
  Ni  Ni136  1  0.80823760  0.24404422  0.69168274  1
  Ni  Ni137  1  0.24404422  0.80823760  0.80831726  1
  Ni  Ni138  1  0.19176240  0.75595578  0.30831726  1
  Ni  Ni139  1  0.75595578  0.19176240  0.19168274  1
  Cu  Cu140  1  0.43346665  0.74169242  0.66032490  1
  Cu  Cu141  1  0.74169242  0.43346665  0.83967510  1
  Cu  Cu142  1  0.56653335  0.25830758  0.33967510  1
  Cu  Cu143  1  0.25830758  0.56653335  0.16032490  1
  Cu  Cu144  1  0.18147561  0.65211319  0.70102586  1
  Cu  Cu145  1  0.65211319  0.18147561  0.79897414  1
  Cu  Cu146  1  0.81852439  0.34788681  0.29897414  1
  Cu  Cu147  1  0.34788681  0.81852439  0.20102586  1
  Cu  Cu148  1  0.48991545  0.85287753  0.73089746  1
  Cu  Cu149  1  0.85287753  0.48991545  0.76910254  1
  Cu  Cu150  1  0.51008455  0.14712247  0.26910254  1
  Cu  Cu151  1  0.14712247  0.51008455  0.23089746  1
  Cu  Cu152  1  0.36160025  0.53348210  0.72005052  1
  Cu  Cu153  1  0.53348210  0.36160025  0.77994948  1
  Cu  Cu154  1  0.63839975  0.46651790  0.27994948  1
  Cu  Cu155  1  0.46651790  0.63839975  0.22005052  1
  Cu  Cu156  1  0.04009619  0.82735180  0.57029383  1
  Cu  Cu157  1  0.82735180  0.04009619  0.92970617  1
  Cu  Cu158  1  0.95990381  0.17264820  0.42970617  1
  Cu  Cu159  1  0.17264820  0.95990381  0.07029383  1
  Cu  Cu160  1  0.95070789  0.52957765  0.55904157  1
  Cu  Cu161  1  0.52957765  0.95070789  0.94095843  1
  Cu  Cu162  1  0.04929211  0.47042235  0.44095843  1
  Cu  Cu163  1  0.47042235  0.04929211  0.05904157  1
  Cu  Cu164  1  0.99453541  0.72802807  0.49859712  1
  Cu  Cu165  1  0.72802807  0.99453541  0.00140288  1
  Cu  Cu166  1  0.00546459  0.27197193  0.50140288  1
  Cu  Cu167  1  0.27197193  0.00546459  0.99859712  1
  Cu  Cu168  1  0.73130227  0.59769879  0.54267247  1
  Cu  Cu169  1  0.59769879  0.73130227  0.95732753  1
  Cu  Cu170  1  0.26869773  0.40230121  0.45732753  1
  Cu  Cu171  1  0.40230121  0.26869773  0.04267247  1
  Cu  Cu172  1  0.25336618  0.97060785  0.64860737  1
  Cu  Cu173  1  0.97060785  0.25336618  0.85139263  1
  Cu  Cu174  1  0.74663382  0.02939215  0.35139263  1
  Cu  Cu175  1  0.02939215  0.74663382  0.14860737  1
  Cu  Cu176  1  0.40373783  0.90071398  0.58002062  1
  Cu  Cu177  1  0.90071398  0.40373783  0.91997938  1
  Cu  Cu178  1  0.59626217  0.09928602  0.41997938  1
  Cu  Cu179  1  0.09928602  0.59626217  0.08002062  1
  Cu  Cu180  1  0.88210004  0.60254268  0.64856516  1
  Cu  Cu181  1  0.60254268  0.88210004  0.85143484  1
  Cu  Cu182  1  0.11789996  0.39745732  0.35143484  1
  Cu  Cu183  1  0.39745732  0.11789996  0.14856516  1
  Cu  Cu184  1  0.01374589  0.37595313  0.64021526  1
  Cu  Cu185  1  0.37595313  0.01374589  0.85978474  1
  Cu  Cu186  1  0.98625411  0.62404687  0.35978474  1
  Cu  Cu187  1  0.62404687  0.98625411  0.14021526  1
  Cu  Cu188  1  0.28971088  0.54471312  0.58397274  1
  Cu  Cu189  1  0.54471312  0.28971088  0.91602726  1
  Cu  Cu190  1  0.71028912  0.45528688  0.41602726  1
  Cu  Cu191  1  0.45528688  0.71028912  0.08397274  1
  Cu  Cu192  1  0.03766282  0.12954959  0.57633535  1
  Cu  Cu193  1  0.12954959  0.03766282  0.92366465  1
  Cu  Cu194  1  0.96233718  0.87045041  0.42366465  1
  Cu  Cu195  1  0.87045041  0.96233718  0.07633535  1
  Cu  Cu196  1  0.52656190  0.70836778  0.51935459  1
  Cu  Cu197  1  0.70836778  0.52656190  0.98064541  1
  Cu  Cu198  1  0.47343810  0.29163222  0.48064541  1
  Cu  Cu199  1  0.29163222  0.47343810  0.01935459  1
