# generated using pymatgen
data_Cu6Ni2C
_symmetry_space_group_name_H-M   'P 1'
_cell_length_a   5.46038600
_cell_length_b   6.83179000
_cell_length_c   14.96534600
_cell_angle_alpha   90.00000000
_cell_angle_beta   90.00000000
_cell_angle_gamma   90.00000000
_symmetry_Int_Tables_number   1
_chemical_formula_structural   Cu6Ni2C
_chemical_formula_sum   'Cu24 Ni8 C4'
_cell_volume   558.27041695
_cell_formula_units_Z   4
loop_
 _symmetry_equiv_pos_site_id
 _symmetry_equiv_pos_as_xyz
  1  'x, y, z'
loop_
 _atom_site_type_symbol
 _atom_site_label
 _atom_site_symmetry_multiplicity
 _atom_site_fract_x
 _atom_site_fract_y
 _atom_site_fract_z
 _atom_site_occupancy
  C  C0  1  0.75000000  0.14507900  0.00000000  1
  C  C1  1  0.25000000  0.85492100  0.00000000  1
  C  C2  1  0.25000000  0.35492100  0.50000000  1
  C  C3  1  0.75000000  0.64507900  0.50000000  1
  Ni  Ni4  1  0.24823200  0.28719700  0.15162400  1
  Ni  Ni5  1  0.74823200  0.71280300  0.15162400  1
  Ni  Ni6  1  0.74823200  0.21280300  0.34837600  1
  Ni  Ni7  1  0.24823200  0.78719700  0.34837600  1
  Ni  Ni8  1  0.75176800  0.21280300  0.65162400  1
  Ni  Ni9  1  0.25176800  0.78719700  0.65162400  1
  Ni  Ni10  1  0.25176800  0.28719700  0.84837600  1
  Ni  Ni11  1  0.75176800  0.71280300  0.84837600  1
  Cu  Cu12  1  0.41084400  0.10723200  0.07888100  1
  Cu  Cu13  1  0.91084400  0.89276800  0.07888100  1
  Cu  Cu14  1  0.97126400  0.33699200  0.08362600  1
  Cu  Cu15  1  0.47126400  0.66300800  0.08362600  1
  Cu  Cu16  1  0.62741400  0.37363300  0.26243900  1
  Cu  Cu17  1  0.12741400  0.62636700  0.26243900  1
  Cu  Cu18  1  0.12741400  0.12636700  0.23756100  1
  Cu  Cu19  1  0.62741400  0.87363300  0.23756100  1
  Cu  Cu20  1  0.47126400  0.16300800  0.41637400  1
  Cu  Cu21  1  0.97126400  0.83699200  0.41637400  1
  Cu  Cu22  1  0.91084400  0.39276800  0.42111900  1
  Cu  Cu23  1  0.41084400  0.60723200  0.42111900  1
  Cu  Cu24  1  0.58915600  0.39276800  0.57888100  1
  Cu  Cu25  1  0.08915600  0.60723200  0.57888100  1
  Cu  Cu26  1  0.02873600  0.16300800  0.58362600  1
  Cu  Cu27  1  0.52873600  0.83699200  0.58362600  1
  Cu  Cu28  1  0.37258600  0.12636700  0.76243900  1
  Cu  Cu29  1  0.87258600  0.87363300  0.76243900  1
  Cu  Cu30  1  0.87258600  0.37363300  0.73756100  1
  Cu  Cu31  1  0.37258600  0.62636700  0.73756100  1
  Cu  Cu32  1  0.52873600  0.33699200  0.91637400  1
  Cu  Cu33  1  0.02873600  0.66300800  0.91637400  1
  Cu  Cu34  1  0.08915600  0.10723200  0.92111900  1
  Cu  Cu35  1  0.58915600  0.89276800  0.92111900  1
