# generated using pymatgen
data_Cu9Ni11C10
_symmetry_space_group_name_H-M   'P 1'
_cell_length_a   4.74086800
_cell_length_b   4.73994438
_cell_length_c   15.35227554
_cell_angle_alpha   89.95522290
_cell_angle_beta   89.81748650
_cell_angle_gamma   86.49378346
_symmetry_Int_Tables_number   1
_chemical_formula_structural   Cu9Ni11C10
_chemical_formula_sum   'Cu9 Ni11 C10'
_cell_volume   344.34033601
_cell_formula_units_Z   1
loop_
 _symmetry_equiv_pos_site_id
 _symmetry_equiv_pos_as_xyz
  1  'x, y, z'
loop_
 _atom_site_type_symbol
 _atom_site_label
 _atom_site_symmetry_multiplicity
 _atom_site_fract_x
 _atom_site_fract_y
 _atom_site_fract_z
 _atom_site_occupancy
  C  C0  1  0.98707000  0.99352900  0.99837600  1
  C  C1  1  0.99304800  0.98900100  0.20422100  1
  C  C2  1  0.95124400  0.00662800  0.39904200  1
  C  C3  1  0.98996700  0.98989900  0.59292400  1
  C  C4  1  0.01777800  0.95860600  0.80462000  1
  C  C5  1  0.49234600  0.49351100  0.10067500  1
  C  C6  1  0.53401700  0.51510000  0.50416300  1
  C  C7  1  0.53008600  0.51776000  0.29479600  1
  C  C8  1  0.48232900  0.49858300  0.69458600  1
  C  C9  1  0.52009800  0.53397800  0.90658500  1
  Ni  Ni10  1  0.80327800  0.81614700  0.29737100  1
  Ni  Ni11  1  0.80257700  0.81379300  0.49828900  1
  Ni  Ni12  1  0.81650800  0.80738700  0.90169100  1
  Ni  Ni13  1  0.30301300  0.69672100  0.00661000  1
  Ni  Ni14  1  0.30293000  0.69115800  0.19448300  1
  Ni  Ni15  1  0.29901900  0.69798800  0.59973000  1
  Ni  Ni16  1  0.32301300  0.67990800  0.80101500  1
  Ni  Ni17  1  0.69234700  0.30582900  0.00504100  1
  Ni  Ni18  1  0.69317600  0.30211000  0.19296900  1
  Ni  Ni19  1  0.68434800  0.32673500  0.39772000  1
  Ni  Ni20  1  0.69927200  0.29903000  0.60432400  1
  Cu  Cu21  1  0.80388700  0.80511300  0.10034900  1
  Cu  Cu22  1  0.81066200  0.79612000  0.70329100  1
  Cu  Cu23  1  0.29512100  0.71479600  0.39649200  1
  Cu  Cu24  1  0.71300300  0.28977200  0.80135900  1
  Cu  Cu25  1  0.18453300  0.18599200  0.10019200  1
  Cu  Cu26  1  0.19168300  0.20041100  0.49613500  1
  Cu  Cu27  1  0.19216200  0.19970400  0.29897400  1
  Cu  Cu28  1  0.20079700  0.19270500  0.90006200  1
  Cu  Cu29  1  0.19069000  0.18198600  0.70391600  1
