# generated using pymatgen
data_Cu3NiC10
_symmetry_space_group_name_H-M   'P 1'
_cell_length_a   8.23195600
_cell_length_b   8.23195600
_cell_length_c   8.23195600
_cell_angle_alpha   90.00000000
_cell_angle_beta   90.00000000
_cell_angle_gamma   90.00000000
_symmetry_Int_Tables_number   1
_chemical_formula_structural   Cu3NiC10
_chemical_formula_sum   'Cu12 Ni4 C40'
_cell_volume   557.83931813
_cell_formula_units_Z   4
loop_
 _symmetry_equiv_pos_site_id
 _symmetry_equiv_pos_as_xyz
  1  'x, y, z'
loop_
 _atom_site_type_symbol
 _atom_site_label
 _atom_site_symmetry_multiplicity
 _atom_site_fract_x
 _atom_site_fract_y
 _atom_site_fract_z
 _atom_site_occupancy
  C  C0  1  0.99233000  0.99233000  0.99233000  1
  C  C1  1  0.25767000  0.25767000  0.25767000  1
  C  C2  1  0.24233000  0.74233000  0.75767000  1
  C  C3  1  0.50767000  0.00767000  0.49233000  1
  C  C4  1  0.49233000  0.50767000  0.00767000  1
  C  C5  1  0.75767000  0.24233000  0.74233000  1
  C  C6  1  0.74233000  0.75767000  0.24233000  1
  C  C7  1  0.00767000  0.49233000  0.50767000  1
  Ni  Ni8  1  0.12500000  0.87500000  0.37500000  1
  Ni  Ni9  1  0.37500000  0.12500000  0.87500000  1
  Ni  Ni10  1  0.62500000  0.62500000  0.62500000  1
  Ni  Ni11  1  0.87500000  0.37500000  0.12500000  1
  Cu  Cu12  1  0.12230700  0.12769300  0.62500000  1
  Cu  Cu13  1  0.12500000  0.37769300  0.87230700  1
  Cu  Cu14  1  0.12769300  0.62500000  0.12230700  1
  Cu  Cu15  1  0.37230700  0.37500000  0.62230700  1
  Cu  Cu16  1  0.37500000  0.62230700  0.37230700  1
  Cu  Cu17  1  0.37769300  0.87230700  0.12500000  1
  Cu  Cu18  1  0.62230700  0.37230700  0.37500000  1
  Cu  Cu19  1  0.62500000  0.12230700  0.12769300  1
  Cu  Cu20  1  0.62769300  0.87500000  0.87769300  1
  Cu  Cu21  1  0.87230700  0.12500000  0.37769300  1
  Cu  Cu22  1  0.87500000  0.87769300  0.62769300  1
  Cu  Cu23  1  0.87769300  0.62769300  0.87500000  1
  C  C24  1  0.11201600  0.11987500  0.38789200  1
  C  C25  1  0.11210800  0.88798400  0.61987500  1
  C  C26  1  0.10870900  0.60870900  0.89129100  1
  C  C27  1  0.13012500  0.13798400  0.86210800  1
  C  C28  1  0.11987500  0.38789200  0.11201600  1
  C  C29  1  0.14129100  0.35870900  0.64129100  1
  C  C30  1  0.13789200  0.63012500  0.36201600  1
  C  C31  1  0.13798400  0.86210800  0.13012500  1
  C  C32  1  0.36201600  0.13789200  0.63012500  1
  C  C33  1  0.36210800  0.36987500  0.86201600  1
  C  C34  1  0.35870900  0.64129100  0.14129100  1
  C  C35  1  0.38012500  0.61210800  0.61201600  1
  C  C36  1  0.36987500  0.86201600  0.36210800  1
  C  C37  1  0.39129100  0.39129100  0.39129100  1
  C  C38  1  0.38789200  0.11201600  0.11987500  1
  C  C39  1  0.38798400  0.88012500  0.88789200  1
  C  C40  1  0.61201600  0.38012500  0.61210800  1
  C  C41  1  0.61210800  0.61201600  0.38012500  1
  C  C42  1  0.60870900  0.89129100  0.10870900  1
  C  C43  1  0.63012500  0.36201600  0.13789200  1
  C  C44  1  0.61987500  0.11210800  0.88798400  1
  C  C45  1  0.64129100  0.14129100  0.35870900  1
  C  C46  1  0.63789200  0.86987500  0.63798400  1
  C  C47  1  0.63798400  0.63789200  0.86987500  1
  C  C48  1  0.86201600  0.36210800  0.36987500  1
  C  C49  1  0.86210800  0.13012500  0.13798400  1
  C  C50  1  0.85870900  0.85870900  0.85870900  1
  C  C51  1  0.88012500  0.88789200  0.38798400  1
  C  C52  1  0.86987500  0.63798400  0.63789200  1
  C  C53  1  0.89129100  0.10870900  0.60870900  1
  C  C54  1  0.88789200  0.38798400  0.88012500  1
  C  C55  1  0.88798400  0.61987500  0.11210800  1
