# generated using pymatgen
data_Cu2Ni3C19
_symmetry_space_group_name_H-M   'P 1'
_cell_length_a   5.88321500
_cell_length_b   7.95033381
_cell_length_c   10.12917101
_cell_angle_alpha   97.21771408
_cell_angle_beta   106.72386100
_cell_angle_gamma   100.91639683
_symmetry_Int_Tables_number   1
_chemical_formula_structural   Cu2Ni3C19
_chemical_formula_sum   'Cu4 Ni6 C38'
_cell_volume   437.27648256
_cell_formula_units_Z   2
loop_
 _symmetry_equiv_pos_site_id
 _symmetry_equiv_pos_as_xyz
  1  'x, y, z'
loop_
 _atom_site_type_symbol
 _atom_site_label
 _atom_site_symmetry_multiplicity
 _atom_site_fract_x
 _atom_site_fract_y
 _atom_site_fract_z
 _atom_site_occupancy
  C  C0  1  0.65798100  0.65450300  0.50017100  1
  C  C1  1  0.34201900  0.34549700  0.49982900  1
  Ni  Ni2  1  0.67067700  0.66457400  0.00632100  1
  Ni  Ni3  1  0.17107500  0.66477200  0.00648700  1
  Ni  Ni4  1  0.82892500  0.33522800  0.99351300  1
  Ni  Ni5  1  0.32932300  0.33542600  0.99367900  1
  Ni  Ni6  1  0.00000000  0.00000000  0.00000000  1
  Ni  Ni7  1  0.50000000  0.00000000  0.00000000  1
  Cu  Cu8  1  0.16830100  0.65994100  0.49882700  1
  Cu  Cu9  1  0.50000000  0.00000000  0.50000000  1
  Cu  Cu10  1  0.83169900  0.34005900  0.50117300  1
  Cu  Cu11  1  0.00000000  0.00000000  0.50000000  1
  C  C12  1  0.10402200  0.83635500  0.28807200  1
  C  C13  1  0.54654600  0.83026600  0.70431400  1
  C  C14  1  0.60851400  0.84912300  0.29577200  1
  C  C15  1  0.25281200  0.51723500  0.29087400  1
  C  C16  1  0.07034600  0.82571600  0.69914800  1
  C  C17  1  0.78342500  0.50043600  0.29149800  1
  C  C18  1  0.21657500  0.49956400  0.70850200  1
  C  C19  1  0.92965400  0.17428400  0.30085200  1
  C  C20  1  0.39148600  0.15087700  0.70422800  1
  C  C21  1  0.74718800  0.48276500  0.70912600  1
  C  C22  1  0.45345400  0.16973400  0.29568600  1
  C  C23  1  0.89597800  0.16364500  0.71192800  1
  C  C24  1  0.16202500  0.86917900  0.39330200  1
  C  C25  1  0.00406400  0.78058600  0.11436000  1
  C  C26  1  0.48630500  0.81150600  0.60148800  1
  C  C27  1  0.66933400  0.85401400  0.90339300  1
  C  C28  1  0.50391000  0.78154900  0.11281300  1
  C  C29  1  0.31489400  0.54623300  0.39286000  1
  C  C30  1  0.67041800  0.88382700  0.39925500  1
  C  C31  1  0.01681800  0.80848700  0.59650700  1
  C  C32  1  0.16908700  0.85618100  0.90426500  1
  C  C33  1  0.83497100  0.53540000  0.90016600  1
  C  C34  1  0.66588200  0.46424500  0.10133200  1
  C  C35  1  0.84458900  0.52046000  0.39444700  1
  C  C36  1  0.15541100  0.47954000  0.60555300  1
  C  C37  1  0.33411800  0.53575500  0.89866800  1
  C  C38  1  0.16502900  0.46460000  0.09983400  1
  C  C39  1  0.98318200  0.19151300  0.40349300  1
  C  C40  1  0.83091300  0.14381900  0.09573500  1
  C  C41  1  0.49609000  0.21845100  0.88718700  1
  C  C42  1  0.68510600  0.45376700  0.60714000  1
  C  C43  1  0.32958200  0.11617300  0.60074500  1
  C  C44  1  0.33066600  0.14598600  0.09660700  1
  C  C45  1  0.51369500  0.18849400  0.39851200  1
  C  C46  1  0.83797500  0.13082100  0.60669800  1
  C  C47  1  0.99593600  0.21941400  0.88564000  1
