# generated using pymatgen
data_CuNi3C10
_symmetry_space_group_name_H-M   'P 1'
_cell_length_a   5.81284933
_cell_length_b   5.81284933
_cell_length_c   9.51311700
_cell_angle_alpha   90.00000000
_cell_angle_beta   90.00000000
_cell_angle_gamma   119.99999243
_symmetry_Int_Tables_number   1
_chemical_formula_structural   CuNi3C10
_chemical_formula_sum   'Cu2 Ni6 C20'
_cell_volume   278.37590109
_cell_formula_units_Z   2
loop_
 _symmetry_equiv_pos_site_id
 _symmetry_equiv_pos_as_xyz
  1  'x, y, z'
loop_
 _atom_site_type_symbol
 _atom_site_label
 _atom_site_symmetry_multiplicity
 _atom_site_fract_x
 _atom_site_fract_y
 _atom_site_fract_z
 _atom_site_occupancy
  C  C0  1  0.33333300  0.66666700  0.90159100  1
  C  C1  1  0.00000000  0.00000000  0.99066900  1
  C  C2  1  0.00000000  0.00000000  0.49066900  1
  C  C3  1  0.66666700  0.33333300  0.40159100  1
  Ni  Ni4  1  0.17390900  0.83500600  0.21413500  1
  Ni  Ni5  1  0.16499400  0.33890300  0.21413500  1
  Ni  Ni6  1  0.66109700  0.82609100  0.21413500  1
  Ni  Ni7  1  0.33890300  0.16499400  0.71413500  1
  Ni  Ni8  1  0.82609100  0.66109700  0.71413500  1
  Ni  Ni9  1  0.83500600  0.17390900  0.71413500  1
  Cu  Cu10  1  0.33333300  0.66666700  0.48627600  1
  Cu  Cu11  1  0.66666700  0.33333300  0.98627600  1
  C  C12  1  0.18273800  0.85568100  0.59347500  1
  C  C13  1  0.03194100  0.54260900  0.34475200  1
  C  C14  1  0.33333300  0.66666700  0.11880400  1
  C  C15  1  0.00000000  0.00000000  0.29947200  1
  C  C16  1  0.00000000  0.00000000  0.79947200  1
  C  C17  1  0.14431900  0.32705700  0.59347500  1
  C  C18  1  0.51066800  0.96805900  0.34475200  1
  C  C19  1  0.45739100  0.48933200  0.34475200  1
  C  C20  1  0.32705700  0.14431900  0.09347500  1
  C  C21  1  0.67294300  0.81726200  0.59347500  1
  C  C22  1  0.48933200  0.45739100  0.84475200  1
  C  C23  1  0.54260900  0.03194100  0.84475200  1
  C  C24  1  0.66666700  0.33333300  0.61880400  1
  C  C25  1  0.81726200  0.67294300  0.09347500  1
  C  C26  1  0.96805900  0.51066800  0.84475200  1
  C  C27  1  0.85568100  0.18273800  0.09347500  1
