# generated using pymatgen
data_Cu5(Ni2C11)2
_symmetry_space_group_name_H-M   'P 1'
_cell_length_a   2.91091300
_cell_length_b   9.12685100
_cell_length_c   26.23829800
_cell_angle_alpha   90.00000000
_cell_angle_beta   90.00000000
_cell_angle_gamma   90.00000000
_symmetry_Int_Tables_number   1
_chemical_formula_structural   Cu5(Ni2C11)2
_chemical_formula_sum   'Cu10 Ni8 C44'
_cell_volume   697.08517463
_cell_formula_units_Z   2
loop_
 _symmetry_equiv_pos_site_id
 _symmetry_equiv_pos_as_xyz
  1  'x, y, z'
loop_
 _atom_site_type_symbol
 _atom_site_label
 _atom_site_symmetry_multiplicity
 _atom_site_fract_x
 _atom_site_fract_y
 _atom_site_fract_z
 _atom_site_occupancy
  C  C0  1  0.00000000  0.19644700  0.48501200  1
  C  C1  1  0.00000000  0.20372600  0.68371200  1
  C  C2  1  0.00000000  0.29627400  0.18371200  1
  C  C3  1  0.00000000  0.30355300  0.98501200  1
  C  C4  1  0.00000000  0.69644700  0.01498800  1
  C  C5  1  0.00000000  0.70372600  0.81628800  1
  C  C6  1  0.00000000  0.79627400  0.31628800  1
  C  C7  1  0.00000000  0.80355300  0.51498800  1
  Ni  Ni8  1  0.00000000  0.99510600  0.60147400  1
  Ni  Ni9  1  0.50000000  0.14780700  0.30784300  1
  Ni  Ni10  1  0.50000000  0.35219300  0.80784300  1
  Ni  Ni11  1  0.00000000  0.50489400  0.10147400  1
  Ni  Ni12  1  0.00000000  0.49510600  0.89852600  1
  Ni  Ni13  1  0.50000000  0.64780700  0.19215700  1
  Ni  Ni14  1  0.50000000  0.85219300  0.69215700  1
  Ni  Ni15  1  0.00000000  0.00489400  0.39852600  1
  Cu  Cu16  1  0.00000000  0.00000000  0.00000000  1
  Cu  Cu17  1  0.00000000  0.01071800  0.80926500  1
  Cu  Cu18  1  0.50000000  0.15289200  0.08545300  1
  Cu  Cu19  1  0.50000000  0.34710800  0.58545300  1
  Cu  Cu20  1  0.00000000  0.48928200  0.30926500  1
  Cu  Cu21  1  0.00000000  0.50000000  0.50000000  1
  Cu  Cu22  1  0.00000000  0.51071800  0.69073500  1
  Cu  Cu23  1  0.50000000  0.65289200  0.41454700  1
  Cu  Cu24  1  0.50000000  0.84710800  0.91454700  1
  Cu  Cu25  1  0.00000000  0.98928200  0.19073500  1
  C  C26  1  0.00000000  0.98641500  0.92591300  1
  C  C27  1  0.00000000  0.01358500  0.07408700  1
  C  C28  1  0.50000000  0.05990200  0.44202400  1
  C  C29  1  0.50000000  0.04916500  0.65522200  1
  C  C30  1  0.50000000  0.11820100  0.16694700  1
  C  C31  1  0.00000000  0.09930200  0.26347100  1
  C  C32  1  0.50000000  0.14278100  0.99954500  1
  C  C33  1  0.50000000  0.14279800  0.79114900  1
  C  C34  1  0.00000000  0.18346700  0.35858900  1
  C  C35  1  0.00000000  0.20353700  0.58384700  1
  C  C36  1  0.00000000  0.29646300  0.08384700  1
  C  C37  1  0.00000000  0.31653300  0.85858900  1
  C  C38  1  0.50000000  0.35720200  0.29114900  1
  C  C39  1  0.50000000  0.35721900  0.49954500  1
  C  C40  1  0.00000000  0.40069800  0.76347100  1
  C  C41  1  0.50000000  0.38179900  0.66694700  1
  C  C42  1  0.50000000  0.45083500  0.15522200  1
  C  C43  1  0.50000000  0.44009800  0.94202400  1
  C  C44  1  0.00000000  0.48641500  0.57408700  1
  C  C45  1  0.00000000  0.51358500  0.42591300  1
  C  C46  1  0.50000000  0.55990200  0.05797600  1
  C  C47  1  0.50000000  0.54916500  0.84477800  1
  C  C48  1  0.50000000  0.61820100  0.33305300  1
  C  C49  1  0.00000000  0.59930200  0.23652900  1
  C  C50  1  0.50000000  0.64278100  0.50045500  1
  C  C51  1  0.50000000  0.64279800  0.70885100  1
  C  C52  1  0.00000000  0.68346700  0.14141100  1
  C  C53  1  0.00000000  0.70353700  0.91615300  1
  C  C54  1  0.00000000  0.79646300  0.41615300  1
  C  C55  1  0.00000000  0.81653300  0.64141100  1
  C  C56  1  0.50000000  0.85720200  0.20885100  1
  C  C57  1  0.50000000  0.85721900  0.00045500  1
  C  C58  1  0.00000000  0.90069800  0.73652900  1
  C  C59  1  0.50000000  0.88179900  0.83305300  1
  C  C60  1  0.50000000  0.95083500  0.34477800  1
  C  C61  1  0.50000000  0.94009800  0.55797600  1
