# generated using pymatgen
data_Cu3(NiC6)2
_symmetry_space_group_name_H-M   'P 1'
_cell_length_a   9.61849281
_cell_length_b   9.61849281
_cell_length_c   9.61849299
_cell_angle_alpha   53.54321958
_cell_angle_beta   53.54321958
_cell_angle_gamma   53.54322227
_symmetry_Int_Tables_number   1
_chemical_formula_structural   Cu3(NiC6)2
_chemical_formula_sum   'Cu6 Ni4 C24'
_cell_volume   534.17348050
_cell_formula_units_Z   2
loop_
 _symmetry_equiv_pos_site_id
 _symmetry_equiv_pos_as_xyz
  1  'x, y, z'
loop_
 _atom_site_type_symbol
 _atom_site_label
 _atom_site_symmetry_multiplicity
 _atom_site_fract_x
 _atom_site_fract_y
 _atom_site_fract_z
 _atom_site_occupancy
  Ni  Ni0  1  0.85890000  0.85890000  0.85890000  1
  Ni  Ni1  1  0.65565600  0.65565600  0.65565600  1
  Ni  Ni2  1  0.34434400  0.34434400  0.34434400  1
  Ni  Ni3  1  0.14110000  0.14110000  0.14110000  1
  Cu  Cu4  1  0.26870700  0.55371600  0.94743000  1
  Cu  Cu5  1  0.05257000  0.73129300  0.44628400  1
  Cu  Cu6  1  0.44628400  0.05257000  0.73129300  1
  Cu  Cu7  1  0.55371600  0.94743000  0.26870700  1
  Cu  Cu8  1  0.94743000  0.26870700  0.55371600  1
  Cu  Cu9  1  0.73129300  0.44628400  0.05257000  1
  C  C10  1  0.47812100  0.85941100  0.77022500  1
  C  C11  1  0.77022500  0.47812100  0.85941100  1
  C  C12  1  0.22396500  0.42449900  0.96045400  1
  C  C13  1  0.16090700  0.75002700  0.86444100  1
  C  C14  1  0.85941100  0.77022500  0.47812100  1
  C  C15  1  0.24997300  0.13555900  0.83909300  1
  C  C16  1  0.03954600  0.77603500  0.57550100  1
  C  C17  1  0.47651500  0.51143000  0.83321700  1
  C  C18  1  0.16678300  0.52348500  0.48857000  1
  C  C19  1  0.57550100  0.03954600  0.77603500  1
  C  C20  1  0.13555900  0.83909300  0.24997300  1
  C  C21  1  0.48857000  0.16678300  0.52348500  1
  C  C22  1  0.51143000  0.83321700  0.47651500  1
  C  C23  1  0.86444100  0.16090700  0.75002700  1
  C  C24  1  0.42449900  0.96045400  0.22396500  1
  C  C25  1  0.83321700  0.47651500  0.51143000  1
  C  C26  1  0.52348500  0.48857000  0.16678300  1
  C  C27  1  0.96045400  0.22396500  0.42449900  1
  C  C28  1  0.75002700  0.86444100  0.16090700  1
  C  C29  1  0.14058900  0.22977500  0.52187900  1
  C  C30  1  0.83909300  0.24997300  0.13555900  1
  C  C31  1  0.77603500  0.57550100  0.03954600  1
  C  C32  1  0.22977500  0.52187900  0.14058900  1
  C  C33  1  0.52187900  0.14058900  0.22977500  1
