# generated using pymatgen
data_Cu2NiC17
_symmetry_space_group_name_H-M   'P 1'
_cell_length_a   5.17951862
_cell_length_b   7.54599776
_cell_length_c   10.95467136
_cell_angle_alpha   85.69951567
_cell_angle_beta   89.88000703
_cell_angle_gamma   90.02341695
_symmetry_Int_Tables_number   1
_chemical_formula_structural   Cu2NiC17
_chemical_formula_sum   'Cu4 Ni2 C34'
_cell_volume   426.95285406
_cell_formula_units_Z   2
loop_
 _symmetry_equiv_pos_site_id
 _symmetry_equiv_pos_as_xyz
  1  'x, y, z'
loop_
 _atom_site_type_symbol
 _atom_site_label
 _atom_site_symmetry_multiplicity
 _atom_site_fract_x
 _atom_site_fract_y
 _atom_site_fract_z
 _atom_site_occupancy
  C  C0  1  0.00055400  0.26952200  0.29320400  1
  C  C1  1  0.00056300  0.26949800  0.79317600  1
  C  C2  1  0.49723800  0.80565600  0.53089700  1
  C  C3  1  0.49724900  0.80560400  0.03085000  1
  C  C4  1  0.99584800  0.80661200  0.28976900  1
  C  C5  1  0.99587600  0.80655600  0.78974300  1
  C  C6  1  0.50427700  0.24476100  0.00861500  1
  C  C7  1  0.50428900  0.24471900  0.50863400  1
  C  C8  1  0.50284500  0.51176300  0.25860900  1
  C  C9  1  0.50283200  0.51176700  0.75858500  1
  Ni  Ni10  1  0.00051000  0.99701800  0.99979700  1
  Ni  Ni11  1  0.00054900  0.99702600  0.49978400  1
  Cu  Cu12  1  0.99672500  0.49795100  0.50942700  1
  Cu  Cu13  1  0.50566600  0.00901600  0.24746800  1
  Cu  Cu14  1  0.99672800  0.49793300  0.00944300  1
  Cu  Cu15  1  0.50566800  0.00901900  0.74743400  1
  C  C16  1  0.30733600  0.43127900  0.40329900  1
  C  C17  1  0.30732000  0.43127400  0.90330500  1
  C  C18  1  0.11703600  0.73638900  0.49368900  1
  C  C19  1  0.11698600  0.73638600  0.99370600  1
  C  C20  1  0.31704100  0.04686000  0.59489500  1
  C  C21  1  0.31701900  0.04690600  0.09489200  1
  C  C22  1  0.18182600  0.43089200  0.65255600  1
  C  C23  1  0.18186200  0.43088600  0.15253500  1
  C  C24  1  0.79404400  0.93249800  0.65163100  1
  C  C25  1  0.79407700  0.93249500  0.15162100  1
  C  C26  1  0.37355400  0.74796300  0.74528300  1
  C  C27  1  0.37354400  0.74797000  0.24528400  1
  C  C28  1  0.62220900  0.24833900  0.74270100  1
  C  C29  1  0.62220700  0.24833100  0.24270100  1
  C  C30  1  0.19888300  0.04964700  0.84082900  1
  C  C31  1  0.19890100  0.04964300  0.34082000  1
  C  C32  1  0.82075100  0.55574800  0.84023700  1
  C  C33  1  0.82073200  0.55574900  0.34022900  1
  C  C34  1  0.69397500  0.93618700  0.89417600  1
  C  C35  1  0.69394700  0.93618600  0.39415900  1
  C  C36  1  0.88596100  0.25686900  0.98782300  1
  C  C37  1  0.88589600  0.25688700  0.48782600  1
  C  C38  1  0.68375100  0.55629700  0.08638000  1
  C  C39  1  0.68372800  0.55630000  0.58638900  1
