# generated using pymatgen
data_CuNi3C32
_symmetry_space_group_name_H-M   'P 1'
_cell_length_a   8.46686384
_cell_length_b   8.59776583
_cell_length_c   8.59776590
_cell_angle_alpha   60.00000254
_cell_angle_beta   59.48723904
_cell_angle_gamma   59.48723427
_symmetry_Int_Tables_number   1
_chemical_formula_structural   CuNi3C32
_chemical_formula_sum   'Cu1 Ni3 C32'
_cell_volume   439.10563248
_cell_formula_units_Z   1
loop_
 _symmetry_equiv_pos_site_id
 _symmetry_equiv_pos_as_xyz
  1  'x, y, z'
loop_
 _atom_site_type_symbol
 _atom_site_label
 _atom_site_symmetry_multiplicity
 _atom_site_fract_x
 _atom_site_fract_y
 _atom_site_fract_z
 _atom_site_occupancy
  Ni  Ni0  1  0.07223400  0.64258900  0.64258900  1
  Ni  Ni1  1  0.42670700  0.85776400  0.85776400  1
  Ni  Ni2  1  0.92525400  0.35824800  0.35824800  1
  Cu  Cu3  1  0.57671100  0.14109600  0.14109600  1
  C  C4  1  0.99974000  0.00008700  0.00008700  1
  C  C5  1  0.49817000  0.50061000  0.50061000  1
  C  C6  1  0.25208000  0.24926400  0.54234000  1
  C  C7  1  0.25208000  0.95631500  0.24926400  1
  C  C8  1  0.25208000  0.54234000  0.95631500  1
  C  C9  1  0.74806800  0.45738100  0.04381700  1
  C  C10  1  0.74806800  0.04381700  0.75073400  1
  C  C11  1  0.74806800  0.75073400  0.45738100  1
  C  C12  1  0.06690300  0.11091800  0.31583300  1
  C  C13  1  0.06690300  0.50634500  0.11091800  1
  C  C14  1  0.06690300  0.31583300  0.50634500  1
  C  C15  1  0.23201000  0.08605500  0.74245400  1
  C  C16  1  0.43789200  0.18514500  0.38690900  1
  C  C17  1  0.26892500  0.41181100  0.56381200  1
  C  C18  1  0.23201000  0.93948000  0.08605500  1
  C  C19  1  0.26892500  0.75545200  0.41181100  1
  C  C20  1  0.56426100  0.61795600  0.99944200  1
  C  C21  1  0.26892500  0.56381200  0.75545200  1
  C  C22  1  0.77766800  0.25985500  0.05270500  1
  C  C23  1  0.56426100  0.99944200  0.81834200  1
  C  C24  1  0.43789200  0.99005500  0.18514500  1
  C  C25  1  0.23201000  0.74245400  0.93948000  1
  C  C26  1  0.71923600  0.44550000  0.24146800  1
  C  C27  1  0.43789200  0.38690900  0.99005500  1
  C  C28  1  0.71923600  0.24146800  0.59379600  1
  C  C29  1  0.77766800  0.05270500  0.90977400  1
  C  C30  1  0.71923600  0.59379600  0.44550000  1
  C  C31  1  0.56426100  0.81834200  0.61795600  1
  C  C32  1  0.77766800  0.90977400  0.25985500  1
  C  C33  1  0.93335100  0.68050300  0.50194000  1
  C  C34  1  0.93335100  0.50194000  0.88420600  1
  C  C35  1  0.93335100  0.88420600  0.68050300  1
