# generated using pymatgen
data_Cu7NiC4
_symmetry_space_group_name_H-M   'P 1'
_cell_length_a   7.98214556
_cell_length_b   7.98214556
_cell_length_c   6.68426465
_cell_angle_alpha   65.27645058
_cell_angle_beta   65.27645058
_cell_angle_gamma   51.02030823
_symmetry_Int_Tables_number   1
_chemical_formula_structural   Cu7NiC4
_chemical_formula_sum   'Cu14 Ni2 C8'
_cell_volume   293.37420982
_cell_formula_units_Z   2
loop_
 _symmetry_equiv_pos_site_id
 _symmetry_equiv_pos_as_xyz
  1  'x, y, z'
loop_
 _atom_site_type_symbol
 _atom_site_label
 _atom_site_symmetry_multiplicity
 _atom_site_fract_x
 _atom_site_fract_y
 _atom_site_fract_z
 _atom_site_occupancy
  C  C0  1  0.12156200  0.12156200  0.84915500  1
  C  C1  1  0.62762700  0.62762700  0.37027900  1
  C  C2  1  0.37237300  0.37237300  0.62972100  1
  C  C3  1  0.00000000  0.00000000  0.50000000  1
  C  C4  1  0.50000000  0.50000000  0.00000000  1
  C  C5  1  0.75998800  0.75998800  0.73218700  1
  C  C6  1  0.24001200  0.24001200  0.26781300  1
  C  C7  1  0.87843800  0.87843800  0.15084500  1
  Ni  Ni8  1  0.11740400  0.11740400  0.55614600  1
  Ni  Ni9  1  0.88259600  0.88259600  0.44385400  1
  Cu  Cu10  1  0.12030300  0.12030300  0.16667800  1
  Cu  Cu11  1  0.63348200  0.63348200  0.06109000  1
  Cu  Cu12  1  0.69492200  0.30507800  0.50000000  1
  Cu  Cu13  1  0.30507800  0.69492200  0.50000000  1
  Cu  Cu14  1  0.04802000  0.45062400  0.75386900  1
  Cu  Cu15  1  0.79477800  0.20522200  0.00000000  1
  Cu  Cu16  1  0.36651800  0.36651800  0.93891000  1
  Cu  Cu17  1  0.63232200  0.63232200  0.66906500  1
  Cu  Cu18  1  0.87969700  0.87969700  0.83332200  1
  Cu  Cu19  1  0.36767800  0.36767800  0.33093500  1
  Cu  Cu20  1  0.45062400  0.04802000  0.75386900  1
  Cu  Cu21  1  0.20522200  0.79477800  0.00000000  1
  Cu  Cu22  1  0.95198000  0.54937600  0.24613100  1
  Cu  Cu23  1  0.54937600  0.95198000  0.24613100  1
