# generated using pymatgen
data_Cu2Ni3C19
_symmetry_space_group_name_H-M   'P 1'
_cell_length_a   6.05749379
_cell_length_b   6.05749379
_cell_length_c   9.16643331
_cell_angle_alpha   89.81866406
_cell_angle_beta   89.81866406
_cell_angle_gamma   60.16035723
_symmetry_Int_Tables_number   1
_chemical_formula_structural   Cu2Ni3C19
_chemical_formula_sum   'Cu2 Ni3 C19'
_cell_volume   291.75181152
_cell_formula_units_Z   1
loop_
 _symmetry_equiv_pos_site_id
 _symmetry_equiv_pos_as_xyz
  1  'x, y, z'
loop_
 _atom_site_type_symbol
 _atom_site_label
 _atom_site_symmetry_multiplicity
 _atom_site_fract_x
 _atom_site_fract_y
 _atom_site_fract_z
 _atom_site_occupancy
  Ni  Ni0  1  0.16781800  0.66491800  0.21006500  1
  Ni  Ni1  1  0.66491800  0.16781800  0.21006500  1
  Ni  Ni2  1  0.82964200  0.82964200  0.71017100  1
  Cu  Cu3  1  0.34275300  0.34275300  0.48955400  1
  Cu  Cu4  1  0.67355800  0.67355800  0.99590300  1
  C  C5  1  0.16737900  0.16737900  0.21073300  1
  C  C6  1  0.33369000  0.82964000  0.71233900  1
  C  C7  1  0.82964000  0.33369000  0.71233900  1
  C  C8  1  0.16990600  0.66902000  0.60126600  1
  C  C9  1  0.47416700  0.47416700  0.32524700  1
  C  C10  1  0.33245900  0.33245900  0.09816500  1
  C  C11  1  0.99959700  0.99959700  0.31504200  1
  C  C12  1  0.99787200  0.99787200  0.82090900  1
  C  C13  1  0.66902000  0.16990600  0.60126600  1
  C  C14  1  0.04935100  0.48232100  0.33731900  1
  C  C15  1  0.48232100  0.04935100  0.33731900  1
  C  C16  1  0.83504700  0.83504700  0.11260100  1
  C  C17  1  0.16501300  0.16501300  0.59969300  1
  C  C18  1  0.51894900  0.95368300  0.83686300  1
  C  C19  1  0.95368300  0.51894900  0.83686300  1
  C  C20  1  0.66423700  0.66423700  0.59374400  1
  C  C21  1  0.33114900  0.82880900  0.10321000  1
  C  C22  1  0.51691100  0.51691100  0.84154600  1
  C  C23  1  0.82880900  0.33114900  0.10321000  1
