# generated using pymatgen
data_Cu9Ni8C9
_symmetry_space_group_name_H-M   'P 1'
_cell_length_a   14.59025200
_cell_length_b   7.04601600
_cell_length_c   7.42062104
_cell_angle_alpha   75.50275243
_cell_angle_beta   90.00000000
_cell_angle_gamma   90.00000000
_symmetry_Int_Tables_number   1
_chemical_formula_structural   Cu9Ni8C9
_chemical_formula_sum   'Cu18 Ni16 C18'
_cell_volume   738.57339256
_cell_formula_units_Z   2
loop_
 _symmetry_equiv_pos_site_id
 _symmetry_equiv_pos_as_xyz
  1  'x, y, z'
loop_
 _atom_site_type_symbol
 _atom_site_label
 _atom_site_symmetry_multiplicity
 _atom_site_fract_x
 _atom_site_fract_y
 _atom_site_fract_z
 _atom_site_occupancy
  C  C0  1  0.75000000  0.01951500  0.44037800  1
  C  C1  1  0.44927400  0.81602700  0.72683400  1
  C  C2  1  0.05072600  0.81602700  0.72683400  1
  C  C3  1  0.55072600  0.18397300  0.27316600  1
  C  C4  1  0.94927400  0.18397300  0.27316600  1
  C  C5  1  0.25000000  0.98048500  0.55962200  1
  C  C6  1  0.75000000  0.96354100  0.06066200  1
  C  C7  1  0.25000000  0.51759700  0.94923500  1
  C  C8  1  0.38056800  0.68586600  0.32421800  1
  C  C9  1  0.11943200  0.68586600  0.32421800  1
  C  C10  1  0.61943200  0.31413400  0.67578200  1
  C  C11  1  0.88056800  0.31413400  0.67578200  1
  C  C12  1  0.75000000  0.48240300  0.05076500  1
  C  C13  1  0.25000000  0.03645900  0.93933800  1
  C  C14  1  0.89995800  0.66383900  0.29782100  1
  C  C15  1  0.60004200  0.66383900  0.29782100  1
  C  C16  1  0.39995800  0.33616100  0.70217900  1
  C  C17  1  0.10004200  0.33616100  0.70217900  1
  Ni  Ni18  1  0.84435100  0.86042900  0.25638200  1
  Ni  Ni19  1  0.65564900  0.86042900  0.25638200  1
  Ni  Ni20  1  0.50398300  0.71213000  0.21164500  1
  Ni  Ni21  1  0.99601700  0.71213000  0.21164500  1
  Ni  Ni22  1  0.35458700  0.49241900  0.78977500  1
  Ni  Ni23  1  0.14541300  0.49241900  0.78977500  1
  Ni  Ni24  1  0.90404800  0.57885500  0.51027100  1
  Ni  Ni25  1  0.59595200  0.57885500  0.51027100  1
  Ni  Ni26  1  0.40404800  0.42114500  0.48972900  1
  Ni  Ni27  1  0.09595200  0.42114500  0.48972900  1
  Ni  Ni28  1  0.85458700  0.50758100  0.21022500  1
  Ni  Ni29  1  0.64541300  0.50758100  0.21022500  1
  Ni  Ni30  1  0.49601700  0.28787000  0.78835500  1
  Ni  Ni31  1  0.00398300  0.28787000  0.78835500  1
  Ni  Ni32  1  0.34435100  0.13957100  0.74361800  1
  Ni  Ni33  1  0.15564900  0.13957100  0.74361800  1
  Cu  Cu34  1  0.25000000  0.80943800  0.81383700  1
  Cu  Cu35  1  0.75000000  0.76073000  0.92079400  1
  Cu  Cu36  1  0.41183600  0.86271100  0.48812900  1
  Cu  Cu37  1  0.08816400  0.86271100  0.48812900  1
  Cu  Cu38  1  0.34568500  0.92349900  0.12051100  1
  Cu  Cu39  1  0.15431500  0.92349900  0.12051100  1
  Cu  Cu40  1  0.25000000  0.71031500  0.42028600  1
  Cu  Cu41  1  0.84151100  0.45552000  0.86297400  1
  Cu  Cu42  1  0.65848900  0.45552000  0.86297400  1
  Cu  Cu43  1  0.34151100  0.54448000  0.13702600  1
  Cu  Cu44  1  0.15848900  0.54448000  0.13702600  1
  Cu  Cu45  1  0.75000000  0.28968500  0.57971400  1
  Cu  Cu46  1  0.84568500  0.07650100  0.87948900  1
  Cu  Cu47  1  0.65431500  0.07650100  0.87948900  1
  Cu  Cu48  1  0.91183600  0.13728900  0.51187100  1
  Cu  Cu49  1  0.58816400  0.13728900  0.51187100  1
  Cu  Cu50  1  0.25000000  0.23927000  0.07920600  1
  Cu  Cu51  1  0.75000000  0.19056200  0.18616300  1
