# generated using pymatgen
data_CuNi3C4
_symmetry_space_group_name_H-M   'P 1'
_cell_length_a   5.86185400
_cell_length_b   5.90371200
_cell_length_c   19.99506200
_cell_angle_alpha   90.00000000
_cell_angle_beta   90.00000000
_cell_angle_gamma   90.00000000
_symmetry_Int_Tables_number   1
_chemical_formula_structural   CuNi3C4
_chemical_formula_sum   'Cu4 Ni12 C16'
_cell_volume   691.96306817
_cell_formula_units_Z   4
loop_
 _symmetry_equiv_pos_site_id
 _symmetry_equiv_pos_as_xyz
  1  'x, y, z'
loop_
 _atom_site_type_symbol
 _atom_site_label
 _atom_site_symmetry_multiplicity
 _atom_site_fract_x
 _atom_site_fract_y
 _atom_site_fract_z
 _atom_site_occupancy
  Ni  Ni0  1  0.20185300  0.20164200  0.86428500  1
  Ni  Ni1  1  0.20185300  0.29835800  0.63571500  1
  Ni  Ni2  1  0.25000000  0.69815900  0.00000000  1
  Ni  Ni3  1  0.25000000  0.80184100  0.50000000  1
  Ni  Ni4  1  0.29814700  0.29835800  0.36428500  1
  Ni  Ni5  1  0.29814700  0.20164200  0.13571500  1
  Ni  Ni6  1  0.70185300  0.70164200  0.63571500  1
  Ni  Ni7  1  0.70185300  0.79835800  0.86428500  1
  Ni  Ni8  1  0.75000000  0.30184100  0.00000000  1
  Ni  Ni9  1  0.75000000  0.19815900  0.50000000  1
  Ni  Ni10  1  0.79814700  0.79835800  0.13571500  1
  Ni  Ni11  1  0.79814700  0.70164200  0.36428500  1
  Cu  Cu12  1  0.22435400  0.75000000  0.75000000  1
  Cu  Cu13  1  0.27564600  0.75000000  0.25000000  1
  Cu  Cu14  1  0.72435400  0.25000000  0.75000000  1
  Cu  Cu15  1  0.77564600  0.25000000  0.25000000  1
  C  C16  1  0.01419500  0.45741200  0.41437700  1
  C  C17  1  0.01419500  0.04258800  0.08562300  1
  C  C18  1  0.07387600  0.43069700  0.93856700  1
  C  C19  1  0.07387600  0.06930300  0.56143300  1
  C  C20  1  0.42612400  0.06930300  0.43856700  1
  C  C21  1  0.42612400  0.43069700  0.06143300  1
  C  C22  1  0.48580500  0.45741200  0.58562300  1
  C  C23  1  0.48580500  0.04258800  0.91437700  1
  C  C24  1  0.51419500  0.95741200  0.08562300  1
  C  C25  1  0.51419500  0.54258800  0.41437700  1
  C  C26  1  0.57387600  0.56930300  0.93856700  1
  C  C27  1  0.57387600  0.93069700  0.56143300  1
  C  C28  1  0.92612400  0.56930300  0.06143300  1
  C  C29  1  0.92612400  0.93069700  0.43856700  1
  C  C30  1  0.98580500  0.95741200  0.91437700  1
  C  C31  1  0.98580500  0.54258800  0.58562300  1
