# generated using pymatgen
data_CuNi3C2
_symmetry_space_group_name_H-M   'P 1'
_cell_length_a   4.59729500
_cell_length_b   4.59729500
_cell_length_c   12.11346700
_cell_angle_alpha   90.00000000
_cell_angle_beta   90.00000000
_cell_angle_gamma   92.73811383
_symmetry_Int_Tables_number   1
_chemical_formula_structural   CuNi3C2
_chemical_formula_sum   'Cu4 Ni12 C8'
_cell_volume   255.72730194
_cell_formula_units_Z   4
loop_
 _symmetry_equiv_pos_site_id
 _symmetry_equiv_pos_as_xyz
  1  'x, y, z'
loop_
 _atom_site_type_symbol
 _atom_site_label
 _atom_site_symmetry_multiplicity
 _atom_site_fract_x
 _atom_site_fract_y
 _atom_site_fract_z
 _atom_site_occupancy
  C  C0  1  0.00145500  0.99854500  0.62452400  1
  C  C1  1  0.00145500  0.99854500  0.37547600  1
  C  C2  1  0.98312600  0.01687400  0.12583300  1
  C  C3  1  0.98312600  0.01687400  0.87416700  1
  C  C4  1  0.51402800  0.48597200  0.00000000  1
  C  C5  1  0.47613100  0.52386900  0.50000000  1
  C  C6  1  0.51865900  0.48134100  0.25027500  1
  C  C7  1  0.51865900  0.48134100  0.74972500  1
  Ni  Ni8  1  0.80886300  0.19113700  0.25031400  1
  Ni  Ni9  1  0.80257100  0.19742900  0.00000000  1
  Ni  Ni10  1  0.80886300  0.19113700  0.74968600  1
  Ni  Ni11  1  0.30407100  0.31110600  0.62500800  1
  Ni  Ni12  1  0.30407100  0.31110600  0.37499200  1
  Ni  Ni13  1  0.31021300  0.30095300  0.12520500  1
  Ni  Ni14  1  0.31021300  0.30095300  0.87479500  1
  Ni  Ni15  1  0.68889400  0.69592900  0.62500800  1
  Ni  Ni16  1  0.68889400  0.69592900  0.37499200  1
  Ni  Ni17  1  0.69904700  0.68978700  0.12520500  1
  Ni  Ni18  1  0.69904700  0.68978700  0.87479500  1
  Ni  Ni19  1  0.18837100  0.81162900  0.50000000  1
  Cu  Cu20  1  0.77897900  0.22102100  0.50000000  1
  Cu  Cu21  1  0.21046000  0.78954000  0.24363300  1
  Cu  Cu22  1  0.19035100  0.80964900  0.00000000  1
  Cu  Cu23  1  0.21046000  0.78954000  0.75636700  1
