# generated using pymatgen
data_Cu4NiC15
_symmetry_space_group_name_H-M   'P 1'
_cell_length_a   6.99287548
_cell_length_b   6.99287548
_cell_length_c   5.82796424
_cell_angle_alpha   74.53045529
_cell_angle_beta   74.53045529
_cell_angle_gamma   83.17459747
_symmetry_Int_Tables_number   1
_chemical_formula_structural   Cu4NiC15
_chemical_formula_sum   'Cu4 Ni1 C15'
_cell_volume   264.36500358
_cell_formula_units_Z   1
loop_
 _symmetry_equiv_pos_site_id
 _symmetry_equiv_pos_as_xyz
  1  'x, y, z'
loop_
 _atom_site_type_symbol
 _atom_site_label
 _atom_site_symmetry_multiplicity
 _atom_site_fract_x
 _atom_site_fract_y
 _atom_site_fract_z
 _atom_site_occupancy
  C  C0  1  0.75663100  0.24336900  0.00000000  1
  C  C1  1  0.24541100  0.75458900  0.50000000  1
  Ni  Ni2  1  0.08801700  0.91198300  0.00000000  1
  Cu  Cu3  1  0.80963200  0.60539500  0.51885900  1
  Cu  Cu4  1  0.60963700  0.79469900  0.02242800  1
  Cu  Cu5  1  0.39460500  0.19036800  0.48114100  1
  Cu  Cu6  1  0.20530100  0.39036300  0.97757200  1
  C  C7  1  0.91488200  0.08511800  0.50000000  1
  C  C8  1  0.98131500  0.79994600  0.40164500  1
  C  C9  1  0.89111300  0.35856300  0.59177300  1
  C  C10  1  0.78717400  0.97595400  0.90754200  1
  C  C11  1  0.63469600  0.64915800  0.31071700  1
  C  C12  1  0.64143700  0.10888700  0.40822700  1
  C  C13  1  0.63847100  0.64422000  0.81528100  1
  C  C14  1  0.35084200  0.36530400  0.68928300  1
  C  C15  1  0.37307000  0.90211400  0.07506300  1
  C  C16  1  0.35578000  0.36152900  0.18471900  1
  C  C17  1  0.20005400  0.01868500  0.59835500  1
  C  C18  1  0.09788600  0.62693000  0.92493700  1
  C  C19  1  0.02404600  0.21282600  0.09245800  1
