# generated using pymatgen
data_CuNiC5
_symmetry_space_group_name_H-M   'P 1'
_cell_length_a   10.54703677
_cell_length_b   10.54703677
_cell_length_c   12.35567300
_cell_angle_alpha   90.00000000
_cell_angle_beta   90.00000000
_cell_angle_gamma   120.00000483
_symmetry_Int_Tables_number   1
_chemical_formula_structural   CuNiC5
_chemical_formula_sum   'Cu12 Ni12 C60'
_cell_volume   1190.30411959
_cell_formula_units_Z   12
loop_
 _symmetry_equiv_pos_site_id
 _symmetry_equiv_pos_as_xyz
  1  'x, y, z'
loop_
 _atom_site_type_symbol
 _atom_site_label
 _atom_site_symmetry_multiplicity
 _atom_site_fract_x
 _atom_site_fract_y
 _atom_site_fract_z
 _atom_site_occupancy
  C  C0  1  0.00000000  0.50000000  0.00934400  1
  C  C1  1  0.00000000  0.50000000  0.65732200  1
  C  C2  1  0.00000000  0.50000000  0.33333300  1
  C  C3  1  0.00000000  0.00000000  0.16666700  1
  C  C4  1  0.00000000  0.00000000  0.50000000  1
  C  C5  1  0.00000000  0.00000000  0.83333300  1
  C  C6  1  0.50000000  0.50000000  0.34267800  1
  C  C7  1  0.50000000  0.50000000  0.66666700  1
  C  C8  1  0.50000000  0.50000000  0.99065600  1
  C  C9  1  0.50000000  0.00000000  0.32398900  1
  C  C10  1  0.50000000  0.00000000  0.00000000  1
  C  C11  1  0.50000000  0.00000000  0.67601100  1
  Ni  Ni12  1  0.00000000  0.74367400  0.83333300  1
  Ni  Ni13  1  0.00000000  0.25632600  0.83333300  1
  Ni  Ni14  1  0.24817700  0.75182300  0.16666700  1
  Ni  Ni15  1  0.24817700  0.49635500  0.50000000  1
  Ni  Ni16  1  0.50364500  0.75182300  0.83333300  1
  Ni  Ni17  1  0.25632600  0.25632600  0.16666700  1
  Ni  Ni18  1  0.25632600  0.00000000  0.50000000  1
  Ni  Ni19  1  0.74367400  0.74367400  0.16666700  1
  Ni  Ni20  1  0.49635500  0.24817700  0.83333300  1
  Ni  Ni21  1  0.75182300  0.50364500  0.50000000  1
  Ni  Ni22  1  0.75182300  0.24817700  0.16666700  1
  Ni  Ni23  1  0.74367400  0.00000000  0.50000000  1
  Cu  Cu24  1  0.00000000  0.75643000  0.33333300  1
  Cu  Cu25  1  0.24828500  0.75171500  0.66666700  1
  Cu  Cu26  1  0.00000000  0.24357000  0.33333300  1
  Cu  Cu27  1  0.24828500  0.49657000  0.00000000  1
  Cu  Cu28  1  0.24357000  0.24357000  0.66666700  1
  Cu  Cu29  1  0.50343000  0.75171500  0.33333300  1
  Cu  Cu30  1  0.24357000  0.00000000  0.00000000  1
  Cu  Cu31  1  0.49657000  0.24828500  0.33333300  1
  Cu  Cu32  1  0.75643000  0.75643000  0.66666700  1
  Cu  Cu33  1  0.75171500  0.50343000  0.00000000  1
  Cu  Cu34  1  0.75171500  0.24828500  0.66666700  1
  Cu  Cu35  1  0.75643000  0.00000000  0.00000000  1
  C  C36  1  0.07233400  0.88084800  0.41815200  1
  C  C37  1  0.11915200  0.92766600  0.91518100  1
  C  C38  1  0.10226800  0.69839200  0.72769000  1
  C  C39  1  0.10748900  0.71512400  0.27916900  1
  C  C40  1  0.28487600  0.89251100  0.05416400  1
  C  C41  1  0.30160800  0.89773200  0.60564400  1
  C  C42  1  0.20467100  0.61857700  0.59247800  1
  C  C43  1  0.10226800  0.40387600  0.93897700  1
  C  C44  1  0.20467100  0.58609400  0.07418800  1
  C  C45  1  0.10748900  0.39236400  0.38749700  1
  C  C46  1  0.07233400  0.19148500  0.24851400  1
  C  C47  1  0.38142300  0.79532900  0.74085500  1
  C  C48  1  0.41390600  0.79532900  0.25914500  1
  C  C49  1  0.11915200  0.19148500  0.75148600  1
  C  C50  1  0.28487600  0.39236400  0.61250300  1
  C  C51  1  0.38142300  0.58609400  0.92581200  1
  C  C52  1  0.30160800  0.40387600  0.06102300  1
  C  C53  1  0.41390600  0.61857700  0.40752200  1
  C  C54  1  0.19148500  0.11915200  0.58184800  1
  C  C55  1  0.19148500  0.07233400  0.08481900  1
  C  C56  1  0.59612400  0.89773200  0.39435600  1
  C  C57  1  0.60763600  0.89251100  0.94583600  1
  C  C58  1  0.60763600  0.71512400  0.72083100  1
  C  C59  1  0.40387600  0.30160800  0.27231000  1
  C  C60  1  0.59612400  0.69839200  0.27231000  1
  C  C61  1  0.39236400  0.28487600  0.72083100  1
  C  C62  1  0.39236400  0.10748900  0.94583600  1
  C  C63  1  0.40387600  0.10226800  0.39435600  1
  C  C64  1  0.80851500  0.92766600  0.08481900  1
  C  C65  1  0.80851500  0.88084800  0.58184800  1
  C  C66  1  0.58609400  0.38142300  0.40752200  1
  C  C67  1  0.69839200  0.59612400  0.06102300  1
  C  C68  1  0.61857700  0.41390600  0.92581200  1
  C  C69  1  0.71512400  0.60763600  0.61250300  1
  C  C70  1  0.88084800  0.80851500  0.75148600  1
  C  C71  1  0.58609400  0.20467100  0.25914500  1
  C  C72  1  0.61857700  0.20467100  0.74085500  1
  C  C73  1  0.92766600  0.80851500  0.24851400  1
  C  C74  1  0.89251100  0.60763600  0.38749700  1
  C  C75  1  0.79532900  0.41390600  0.07418800  1
  C  C76  1  0.89773200  0.59612400  0.93897700  1
  C  C77  1  0.79532900  0.38142300  0.59247800  1
  C  C78  1  0.69839200  0.10226800  0.60564400  1
  C  C79  1  0.71512400  0.10748900  0.05416400  1
  C  C80  1  0.89251100  0.28487600  0.27916900  1
  C  C81  1  0.89773200  0.30160800  0.72769000  1
  C  C82  1  0.88084800  0.07233400  0.91518100  1
  C  C83  1  0.92766600  0.11915200  0.41815200  1
