# generated using pymatgen
data_Cu2Ni3C31
_symmetry_space_group_name_H-M   'P 1'
_cell_length_a   8.65999350
_cell_length_b   8.65999350
_cell_length_c   8.65999375
_cell_angle_alpha   60.19751275
_cell_angle_beta   60.19751275
_cell_angle_gamma   60.19751122
_symmetry_Int_Tables_number   1
_chemical_formula_structural   Cu2Ni3C31
_chemical_formula_sum   'Cu2 Ni3 C31'
_cell_volume   461.29182529
_cell_formula_units_Z   1
loop_
 _symmetry_equiv_pos_site_id
 _symmetry_equiv_pos_as_xyz
  1  'x, y, z'
loop_
 _atom_site_type_symbol
 _atom_site_label
 _atom_site_symmetry_multiplicity
 _atom_site_fract_x
 _atom_site_fract_y
 _atom_site_fract_z
 _atom_site_occupancy
  Ni  Ni0  1  0.85588900  0.85588900  0.85588900  1
  Ni  Ni1  1  0.64602900  0.64602900  0.64602900  1
  Ni  Ni2  1  0.35264700  0.35264700  0.35264700  1
  Cu  Cu3  1  0.00401000  0.00401000  0.00401000  1
  Cu  Cu4  1  0.50050400  0.50050400  0.50050400  1
  C  C5  1  0.14520100  0.14520100  0.14520100  1
  C  C6  1  0.74709600  0.45817600  0.04410700  1
  C  C7  1  0.45817600  0.04410700  0.74709600  1
  C  C8  1  0.04410700  0.74709600  0.45817600  1
  C  C9  1  0.95315500  0.24807000  0.54498500  1
  C  C10  1  0.54498500  0.95315500  0.24807000  1
  C  C11  1  0.24807000  0.54498500  0.95315500  1
  C  C12  1  0.88507700  0.67600300  0.51301500  1
  C  C13  1  0.67600300  0.51301500  0.88507700  1
  C  C14  1  0.93931200  0.08763500  0.74132300  1
  C  C15  1  0.51301500  0.88507700  0.67600300  1
  C  C16  1  0.98284900  0.19011100  0.39322000  1
  C  C17  1  0.76142900  0.41446700  0.56947600  1
  C  C18  1  0.74132300  0.93931200  0.08763500  1
  C  C19  1  0.56947600  0.76142900  0.41446700  1
  C  C20  1  0.80972200  0.62105900  0.99816000  1
  C  C21  1  0.41446700  0.56947600  0.76142900  1
  C  C22  1  0.90447300  0.26823800  0.05278900  1
  C  C23  1  0.62105900  0.99816000  0.80972200  1
  C  C24  1  0.39322000  0.98284900  0.19011100  1
  C  C25  1  0.08763500  0.74132300  0.93931200  1
  C  C26  1  0.58157000  0.44761700  0.23607500  1
  C  C27  1  0.19011100  0.39322000  0.98284900  1
  C  C28  1  0.44761700  0.23607500  0.58157000  1
  C  C29  1  0.26823800  0.05278900  0.90447300  1
  C  C30  1  0.23607500  0.58157000  0.44761700  1
  C  C31  1  0.99816000  0.80972200  0.62105900  1
  C  C32  1  0.49799400  0.11934100  0.30917800  1
  C  C33  1  0.05278900  0.90447300  0.26823800  1
  C  C34  1  0.30917800  0.49799400  0.11934100  1
  C  C35  1  0.11934100  0.30917800  0.49799400  1
