# generated using pymatgen
data_Cu4NiC5
_symmetry_space_group_name_H-M   'P 1'
_cell_length_a   6.71433092
_cell_length_b   6.71433092
_cell_length_c   9.96149026
_cell_angle_alpha   78.29798320
_cell_angle_beta   78.29798320
_cell_angle_gamma   25.86628924
_symmetry_Int_Tables_number   1
_chemical_formula_structural   Cu4NiC5
_chemical_formula_sum   'Cu8 Ni2 C10'
_cell_volume   191.63468295
_cell_formula_units_Z   2
loop_
 _symmetry_equiv_pos_site_id
 _symmetry_equiv_pos_as_xyz
  1  'x, y, z'
loop_
 _atom_site_type_symbol
 _atom_site_label
 _atom_site_symmetry_multiplicity
 _atom_site_fract_x
 _atom_site_fract_y
 _atom_site_fract_z
 _atom_site_occupancy
  Ni  Ni0  1  0.10006000  0.10006000  0.70007800  1
  Ni  Ni1  1  0.89994000  0.89994000  0.29992200  1
  Cu  Cu2  1  0.39968200  0.39968200  0.80059800  1
  Cu  Cu3  1  0.70032900  0.70032900  0.90086700  1
  Cu  Cu4  1  0.60031800  0.60031800  0.19940200  1
  Cu  Cu5  1  0.29967100  0.29967100  0.09913300  1
  Cu  Cu6  1  0.20018000  0.20018000  0.39919400  1
  Cu  Cu7  1  0.00000000  0.00000000  0.00000000  1
  Cu  Cu8  1  0.79982000  0.79982000  0.60080600  1
  Cu  Cu9  1  0.50000000  0.50000000  0.50000000  1
  C  C10  1  0.25152300  0.25152300  0.75137000  1
  C  C11  1  0.15058300  0.15058300  0.04991000  1
  C  C12  1  0.54891900  0.54891900  0.85305800  1
  C  C13  1  0.84941700  0.84941700  0.95009000  1
  C  C14  1  0.74847700  0.74847700  0.24863000  1
  C  C15  1  0.45108100  0.45108100  0.14694200  1
  C  C16  1  0.34899100  0.34899100  0.45337500  1
  C  C17  1  0.65100900  0.65100900  0.54662500  1
  C  C18  1  0.05134100  0.05134100  0.35053000  1
  C  C19  1  0.94865900  0.94865900  0.64947000  1
