# generated using pymatgen
data_Cu3(Ni3C11)2
_symmetry_space_group_name_H-M   'P 1'
_cell_length_a   8.97515800
_cell_length_b   10.87427200
_cell_length_c   17.12722500
_cell_angle_alpha   90.00000000
_cell_angle_beta   90.00000000
_cell_angle_gamma   90.00000000
_symmetry_Int_Tables_number   1
_chemical_formula_structural   Cu3(Ni3C11)2
_chemical_formula_sum   'Cu12 Ni24 C88'
_cell_volume   1671.58820360
_cell_formula_units_Z   4
loop_
 _symmetry_equiv_pos_site_id
 _symmetry_equiv_pos_as_xyz
  1  'x, y, z'
loop_
 _atom_site_type_symbol
 _atom_site_label
 _atom_site_symmetry_multiplicity
 _atom_site_fract_x
 _atom_site_fract_y
 _atom_site_fract_z
 _atom_site_occupancy
  C  C0  1  0.85020100  0.25169900  0.43748000  1
  C  C1  1  0.14979900  0.75169900  0.56252000  1
  C  C2  1  0.35020100  0.75169900  0.06252000  1
  C  C3  1  0.64979900  0.25169900  0.93748000  1
  C  C4  1  0.00820000  0.21719600  0.49827400  1
  C  C5  1  0.99180000  0.71719600  0.50172600  1
  C  C6  1  0.50820000  0.71719600  0.00172600  1
  C  C7  1  0.49180000  0.21719600  0.99827400  1
  C  C8  1  0.91663200  0.09555900  0.44591900  1
  C  C9  1  0.08336800  0.59555900  0.55408100  1
  C  C10  1  0.41663200  0.59555900  0.05408100  1
  C  C11  1  0.58336800  0.09555900  0.94591900  1
  C  C12  1  0.81841500  0.00986300  0.65684800  1
  C  C13  1  0.18158500  0.50986300  0.34315200  1
  C  C14  1  0.31841500  0.50986300  0.84315200  1
  C  C15  1  0.68158500  0.00986300  0.15684800  1
  C  C16  1  0.90019400  0.96494200  0.56489100  1
  C  C17  1  0.09980600  0.46494200  0.43510900  1
  C  C18  1  0.40019400  0.46494200  0.93510900  1
  C  C19  1  0.59980600  0.96494200  0.06489100  1
  C  C20  1  0.99042600  0.07775500  0.62547000  1
  C  C21  1  0.00957400  0.57775500  0.37453000  1
  C  C22  1  0.49042600  0.57775500  0.87453000  1
  C  C23  1  0.50957400  0.07775500  0.12547000  1
  C  C24  1  0.85945600  0.40407500  0.83560900  1
  C  C25  1  0.14054400  0.90407500  0.16439100  1
  C  C26  1  0.35945600  0.90407500  0.66439100  1
  C  C27  1  0.64054400  0.40407500  0.33560900  1
  C  C28  1  0.98815000  0.49161100  0.77663600  1
  C  C29  1  0.01185000  0.99161100  0.22336400  1
  C  C30  1  0.48815000  0.99161100  0.72336400  1
  C  C31  1  0.51185000  0.49161100  0.27663600  1
  C  C32  1  0.86246500  0.56911500  0.84202900  1
  C  C33  1  0.13753500  0.06911500  0.15797100  1
  C  C34  1  0.36246500  0.06911500  0.65797100  1
  C  C35  1  0.63753500  0.56911500  0.34202900  1
  C  C36  1  0.70271500  0.66845300  0.64402600  1
  C  C37  1  0.29728500  0.16845300  0.35597400  1
  C  C38  1  0.20271500  0.16845300  0.85597400  1
  C  C39  1  0.79728500  0.66845300  0.14402600  1
  C  C40  1  0.77675000  0.71471400  0.73714800  1
  C  C41  1  0.22325000  0.21471400  0.26285200  1
  C  C42  1  0.27675000  0.21471400  0.76285200  1
  C  C43  1  0.72325000  0.71471400  0.23714800  1
  C  C44  1  0.89677400  0.64541600  0.66524900  1
  C  C45  1  0.10322600  0.14541600  0.33475100  1
  C  C46  1  0.39677400  0.14541600  0.83475100  1
  C  C47  1  0.60322600  0.64541600  0.16524900  1
  C  C48  1  0.43489300  0.52477500  0.68611100  1
  C  C49  1  0.56510700  0.02477500  0.31388900  1
  C  C50  1  0.93489300  0.02477500  0.81388900  1
  C  C51  1  0.06510700  0.52477500  0.18611100  1
  C  C52  1  0.46338100  0.54143600  0.58229000  1
  C  C53  1  0.53661900  0.04143600  0.41771000  1
  C  C54  1  0.96338100  0.04143600  0.91771000  1
  C  C55  1  0.03661900  0.54143600  0.08229000  1
  C  C56  1  0.29235500  0.47693700  0.61996100  1
  C  C57  1  0.70764500  0.97693700  0.38003900  1
  C  C58  1  0.79235500  0.97693700  0.88003900  1
  C  C59  1  0.20764500  0.47693700  0.11996100  1
  C  C60  1  0.45676700  0.19690600  0.51673400  1
  C  C61  1  0.54323300  0.69690600  0.48326600  1
  C  C62  1  0.95676700  0.69690600  0.98326600  1
  C  C63  1  0.04323300  0.19690600  0.01673400  1
  C  C64  1  0.30518900  0.30226700  0.52853100  1
  C  C65  1  0.69481100  0.80226700  0.47146900  1
  C  C66  1  0.80518900  0.80226700  0.97146900  1
  C  C67  1  0.19481100  0.30226700  0.02853100  1
  C  C68  1  0.47770100  0.35498800  0.48537300  1
  C  C69  1  0.52229900  0.85498800  0.51462700  1
  C  C70  1  0.97770100  0.85498800  0.01462700  1
  C  C71  1  0.02229900  0.35498800  0.98537300  1
  C  C72  1  0.75467900  0.33533500  0.63756800  1
  C  C73  1  0.24532100  0.83533500  0.36243200  1
  C  C74  1  0.25467900  0.83533500  0.86243200  1
  C  C75  1  0.74532100  0.33533500  0.13756800  1
  Ni  Ni76  1  0.90105900  0.18347500  0.47619700  1
  Ni  Ni77  1  0.09894100  0.68347500  0.52380300  1
  Ni  Ni78  1  0.40105900  0.68347500  0.02380300  1
  Ni  Ni79  1  0.59894100  0.18347500  0.97619700  1
  Ni  Ni80  1  0.88280200  0.04051100  0.60623200  1
  Ni  Ni81  1  0.11719800  0.54051100  0.39376800  1
  Ni  Ni82  1  0.38280200  0.54051100  0.89376800  1
  Ni  Ni83  1  0.61719800  0.04051100  0.10623200  1
  Ni  Ni84  1  0.87725500  0.48982700  0.80341300  1
  Ni  Ni85  1  0.12274500  0.98982700  0.19658700  1
  Ni  Ni86  1  0.37725500  0.98982700  0.69658700  1
  Ni  Ni87  1  0.62274500  0.48982700  0.30341300  1
  Ni  Ni88  1  0.78382400  0.64722700  0.68978100  1
  Ni  Ni89  1  0.21617600  0.14722700  0.31021900  1
  Ni  Ni90  1  0.28382400  0.14722700  0.81021900  1
  Ni  Ni91  1  0.71617600  0.64722700  0.18978100  1
  Ni  Ni92  1  0.41273800  0.48504100  0.62832900  1
  Ni  Ni93  1  0.58726200  0.98504100  0.37167100  1
  Ni  Ni94  1  0.91273800  0.98504100  0.87167100  1
  Ni  Ni95  1  0.08726200  0.48504100  0.12832900  1
  Ni  Ni96  1  0.42660700  0.29295400  0.52840100  1
  Ni  Ni97  1  0.57339300  0.79295400  0.47159900  1
  Ni  Ni98  1  0.92660700  0.79295400  0.97159900  1
  Ni  Ni99  1  0.07339300  0.29295400  0.02840100  1
  Cu  Cu100  1  0.77433700  0.15636000  0.55622600  1
  Cu  Cu101  1  0.22566300  0.65636000  0.44377400  1
  Cu  Cu102  1  0.27433700  0.65636000  0.94377400  1
  Cu  Cu103  1  0.72566300  0.15636000  0.05622600  1
  Cu  Cu104  1  0.73253500  0.50023400  0.73046600  1
  Cu  Cu105  1  0.26746500  0.00023400  0.26953400  1
  Cu  Cu106  1  0.23253500  0.00023400  0.76953400  1
  Cu  Cu107  1  0.76746500  0.50023400  0.23046600  1
  Cu  Cu108  1  0.48942400  0.33186800  0.62557300  1
  Cu  Cu109  1  0.51057600  0.83186800  0.37442700  1
  Cu  Cu110  1  0.98942400  0.83186800  0.87442700  1
  Cu  Cu111  1  0.01057600  0.33186800  0.12557300  1
  C  C112  1  0.71955700  0.20762300  0.74888400  1
  C  C113  1  0.28044300  0.70762300  0.25111600  1
  C  C114  1  0.21955700  0.70762300  0.75111600  1
  C  C115  1  0.78044300  0.20762300  0.24888400  1
  C  C116  1  0.75468800  0.46639500  0.52559500  1
  C  C117  1  0.24531200  0.96639500  0.47440500  1
  C  C118  1  0.25468800  0.96639500  0.97440500  1
  C  C119  1  0.74531200  0.46639500  0.02559500  1
  C  C120  1  0.01645900  0.34002300  0.64744800  1
  C  C121  1  0.98354100  0.84002300  0.35255200  1
  C  C122  1  0.51645900  0.84002300  0.85255200  1
  C  C123  1  0.48354100  0.34002300  0.14744800  1
