# generated using pymatgen
data_Cu2Ni2C17
_symmetry_space_group_name_H-M   'P 1'
_cell_length_a   6.81334207
_cell_length_b   6.81644992
_cell_length_c   30.28747584
_cell_angle_alpha   90.00508305
_cell_angle_beta   91.60791260
_cell_angle_gamma   90.00141664
_symmetry_Int_Tables_number   1
_chemical_formula_structural   Cu2Ni2C17
_chemical_formula_sum   'Cu16 Ni16 C136'
_cell_volume   1406.08146586
_cell_formula_units_Z   8
loop_
 _symmetry_equiv_pos_site_id
 _symmetry_equiv_pos_as_xyz
  1  'x, y, z'
loop_
 _atom_site_type_symbol
 _atom_site_label
 _atom_site_symmetry_multiplicity
 _atom_site_fract_x
 _atom_site_fract_y
 _atom_site_fract_z
 _atom_site_occupancy
  C  C0  1  0.61804956  0.55794696  0.81264021  1
  C  C1  1  0.11816089  0.94207547  0.31271396  1
  C  C2  1  0.38182349  0.44195582  0.18730991  1
  C  C3  1  0.88176848  0.05803165  0.68726105  1
  C  C4  1  0.14149537  0.25090438  0.93723210  1
  C  C5  1  0.64172012  0.24913718  0.43720496  1
  C  C6  1  0.85845791  0.74924106  0.06287492  1
  C  C7  1  0.35853815  0.75096964  0.56278756  1
  C  C8  1  0.74605489  0.51750572  0.90463349  1
  C  C9  1  0.24622840  0.98265546  0.40467708  1
  C  C10  1  0.25391983  0.48242819  0.09535871  1
  C  C11  1  0.75383893  0.01747412  0.59534007  1
  C  C12  1  0.51393076  0.51826676  0.90637044  1
  C  C13  1  0.01387689  0.98182031  0.40635813  1
  C  C14  1  0.48597155  0.48169719  0.09365944  1
  C  C15  1  0.98603114  0.01820063  0.59364605  1
  C  C16  1  0.62713397  0.68160786  0.72030420  1
  C  C17  1  0.12713542  0.81820179  0.22030084  1
  C  C18  1  0.37299677  0.31836314  0.27968327  1
  C  C19  1  0.87285888  0.18182809  0.77968763  1
  C  C20  1  0.63190149  0.45008806  0.71937309  1
  C  C21  1  0.13204090  0.04999725  0.21937386  1
  C  C22  1  0.36806962  0.54984161  0.28059859  1
  C  C23  1  0.86794609  0.95000466  0.78061717  1
  C  C24  1  0.89123904  0.64318823  0.97183266  1
  C  C25  1  0.39146976  0.85670231  0.47180501  1
  C  C26  1  0.10865168  0.35685521  0.02811615  1
  C  C27  1  0.60861036  0.14336518  0.52811607  1
  C  C28  1  0.88661280  0.87613026  0.97053397  1
  C  C29  1  0.38688414  0.62399565  0.47051416  1
  C  C30  1  0.11318779  0.12372742  0.02942999  1
  C  C31  1  0.61315259  0.37595953  0.52940812  1
  C  C32  1  0.02242963  0.29384797  0.84642528  1
  C  C33  1  0.52271543  0.20633879  0.34644963  1
  C  C34  1  0.97730753  0.70615701  0.15365016  1
  C  C35  1  0.47743929  0.79375639  0.65361534  1
  C  C36  1  0.25396247  0.28432351  0.84369555  1
  C  C37  1  0.75368645  0.21569456  0.34369612  1
  C  C38  1  0.74627631  0.71567409  0.15637711  1
  C  C39  1  0.24625494  0.78427782  0.65636093  1
  C  C40  1  0.64933712  0.12799691  0.02112061  1
  C  C41  1  0.14938971  0.37206572  0.52111536  1
  C  C42  1  0.35062153  0.87211039  0.97890310  1
  C  C43  1  0.85061119  0.62793479  0.47888496  1
  C  C44  1  0.66189706  0.37513078  0.01954967  1
  C  C45  1  0.16186163  0.12481788  0.51954870  1
  C  C46  1  0.33806992  0.62475003  0.98047844  1
  C  C47  1  0.83811936  0.87519350  0.48044960  1
  C  C48  1  0.51421230  0.25749101  0.98229874  1
  C  C49  1  0.01424117  0.24251852  0.48228989  1
  C  C50  1  0.48577198  0.74257018  0.01773239  1
  C  C51  1  0.98574412  0.75747749  0.51770131  1
  C  C52  1  0.75960638  0.23952196  0.97761655  1
  C  C53  1  0.25958928  0.26049143  0.47761132  1
  C  C54  1  0.24046401  0.76051272  0.02235440  1
  C  C55  1  0.74041434  0.73948320  0.52238426  1
  C  C56  1  0.99327772  0.50035707  0.77040048  1
  C  C57  1  0.49331844  0.99966553  0.27038481  1
  C  C58  1  0.00663116  0.49967854  0.22959899  1
  C  C59  1  0.50668971  0.00034726  0.72962510  1
  C  C60  1  0.07766946  0.65520576  0.72976609  1
  C  C61  1  0.57763270  0.84486025  0.22973759  1
  C  C62  1  0.92239936  0.34482179  0.27023332  1
  C  C63  1  0.42235612  0.15522362  0.77025794  1
  C  C64  1  0.10810263  0.40856363  0.72544080  1
  C  C65  1  0.60810210  0.09147253  0.22542634  1
  C  C66  1  0.89188079  0.59143246  0.27454471  1
  C  C67  1  0.39188292  0.90847959  0.77457062  1
  C  C68  1  0.23719923  0.53787014  0.76485828  1
  C  C69  1  0.73716305  0.96211911  0.26482186  1
  C  C70  1  0.76288689  0.46210023  0.23514957  1
  C  C71  1  0.26286861  0.03781331  0.73515182  1
  C  C72  1  0.74440575  0.08174537  0.89635377  1
  C  C73  1  0.24439071  0.41828691  0.39637640  1
  C  C74  1  0.25560508  0.91834006  0.10363520  1
  C  C75  1  0.75563674  0.58164517  0.60360524  1
  C  C76  1  0.49842761  0.04739956  0.89657412  1
  C  C77  1  0.99850339  0.45254040  0.39660403  1
  C  C78  1  0.50151478  0.95263266  0.10341883  1
  C  C79  1  0.00148665  0.54738715  0.60339104  1
  C  C80  1  0.64106176  0.93361801  0.85805930  1
  C  C81  1  0.14109098  0.56634935  0.35810186  1
  C  C82  1  0.35889988  0.06630341  0.14191744  1
  C  C83  1  0.85893250  0.43366622  0.64190193  1
  C  C84  1  0.59693158  0.17663186  0.85422337  1
  C  C85  1  0.09696373  0.32337041  0.35419240  1
  C  C86  1  0.40304036  0.82339639  0.14579404  1
  C  C87  1  0.90300348  0.67672168  0.64578492  1
  C  C88  1  0.23344511  0.74356009  0.85272745  1
  C  C89  1  0.73343469  0.75647509  0.35273570  1
  C  C90  1  0.76659804  0.25643852  0.14727835  1
  C  C91  1  0.26648551  0.24358208  0.64725934  1
  C  C92  1  0.98513539  0.75093890  0.85365423  1
  C  C93  1  0.48513682  0.74908339  0.35365635  1
  C  C94  1  0.01481966  0.24903546  0.14634748  1
  C  C95  1  0.51482711  0.25096261  0.64634698  1
  C  C96  1  0.11130065  0.62821174  0.89452228  1
  C  C97  1  0.61131197  0.87177127  0.39454055  1
  C  C98  1  0.88869454  0.37180270  0.10549297  1
  C  C99  1  0.38865281  0.12823430  0.60548158  1
  C  C100  1  0.11896949  0.87478689  0.89270207  1
  C  C101  1  0.61896584  0.62522739  0.39269423  1
  C  C102  1  0.88102789  0.12524630  0.10731780  1
  C  C103  1  0.38102220  0.37476003  0.60729453  1
  Ni  Ni104  1  0.64677511  0.24931476  0.99963837  1
  Ni  Ni105  1  0.14679673  0.25068611  0.49963931  1
  Ni  Ni106  1  0.35333169  0.75068794  0.00032979  1
  Ni  Ni107  1  0.85319313  0.74931468  0.50033423  1
  Ni  Ni108  1  0.10377529  0.52643910  0.74791113  1
  Ni  Ni109  1  0.60373008  0.97358490  0.24789314  1
  Ni  Ni110  1  0.89622436  0.47360182  0.25207947  1
  Ni  Ni111  1  0.39623809  0.02638757  0.75209333  1
  Ni  Ni112  1  0.61933277  0.06108184  0.87595102  1
  Ni  Ni113  1  0.11932925  0.43878071  0.37594450  1
  Ni  Ni114  1  0.38067918  0.93881839  0.12407475  1
  Ni  Ni115  1  0.88067373  0.56122128  0.62405563  1
  Ni  Ni116  1  0.11317358  0.74867434  0.87381762  1
  Ni  Ni117  1  0.61319336  0.75134849  0.37380976  1
  Ni  Ni118  1  0.88681503  0.25135682  0.12621284  1
  Ni  Ni119  1  0.38676669  0.24868077  0.62620465  1
  Cu  Cu120  1  0.62580127  0.55758800  0.88776910  1
  Cu  Cu121  1  0.12583199  0.94198578  0.38764919  1
  Cu  Cu122  1  0.37414723  0.44257307  0.11229727  1
  Cu  Cu123  1  0.87415090  0.05758112  0.61235699  1
  Cu  Cu124  1  0.59094848  0.56383997  0.73758577  1
  Cu  Cu125  1  0.09056080  0.93616862  0.23770096  1
  Cu  Cu126  1  0.40907710  0.43611977  0.26240200  1
  Cu  Cu127  1  0.90915944  0.06386662  0.76233020  1
  Cu  Cu128  1  0.14330730  0.23904269  0.01048204  1
  Cu  Cu129  1  0.64344721  0.26106030  0.51059371  1
  Cu  Cu130  1  0.85696404  0.76090626  0.98934488  1
  Cu  Cu131  1  0.35669949  0.73907393  0.48937618  1
  Cu  Cu132  1  0.14252282  0.24694194  0.86272844  1
  Cu  Cu133  1  0.64258684  0.25299417  0.36262684  1
  Cu  Cu134  1  0.85743019  0.75256841  0.13742350  1
  Cu  Cu135  1  0.35745583  0.74738074  0.63734875  1
  C  C136  1  0.38729043  0.73855009  0.81253264  1
  C  C137  1  0.88801906  0.76197935  0.31253443  1
  C  C138  1  0.61288350  0.26131475  0.18746967  1
  C  C139  1  0.11179149  0.23818424  0.68743533  1
  C  C140  1  0.84784016  0.37678492  0.81152257  1
  C  C141  1  0.34713296  0.12254669  0.31154318  1
  C  C142  1  0.15183728  0.62336119  0.18846223  1
  C  C143  1  0.65285892  0.87728438  0.68839990  1
  C  C144  1  0.43773511  0.32645199  0.80983624  1
  C  C145  1  0.93845785  0.17291862  0.30987397  1
  C  C146  1  0.56253738  0.67376060  0.19013216  1
  C  C147  1  0.06189744  0.82741754  0.69012109  1
  C  C148  1  0.80127133  0.78595564  0.81724502  1
  C  C149  1  0.30068947  0.71467416  0.31722502  1
  C  C150  1  0.19849844  0.21363061  0.18277528  1
  C  C151  1  0.69911902  0.28530619  0.68275559  1
  C  C152  1  0.34093219  0.03372380  0.93726207  1
  C  C153  1  0.84196645  0.46727763  0.43727601  1
  C  C154  1  0.65787524  0.96760572  0.06275794  1
  C  C155  1  0.15835149  0.53299213  0.56269128  1
  C  C156  1  0.94316658  0.46560360  0.93720384  1
  C  C157  1  0.44221424  0.03334260  0.43716739  1
  C  C158  1  0.05820522  0.53322007  0.06287387  1
  C  C159  1  0.55766941  0.96612296  0.56282061  1
  C  C160  1  0.92587116  0.05713457  0.93447672  1
  C  C161  1  0.42464643  0.44380190  0.43447068  1
  C  C162  1  0.07550439  0.94396184  0.06555309  1
  C  C163  1  0.57498085  0.55657581  0.56546936  1
  C  C164  1  0.35042197  0.45135909  0.94203302  1
  C  C165  1  0.85150193  0.04761461  0.44201030  1
  C  C166  1  0.64832600  0.54736823  0.05803476  1
  C  C167  1  0.14882321  0.95203791  0.55800305  1
