# generated using pymatgen
data_Cu3Ni5C56
_symmetry_space_group_name_H-M   'P 1'
_cell_length_a   8.94935407
_cell_length_b   8.94935407
_cell_length_c   18.69117349
_cell_angle_alpha   84.26949562
_cell_angle_beta   84.26949562
_cell_angle_gamma   36.67381069
_symmetry_Int_Tables_number   1
_chemical_formula_structural   Cu3Ni5C56
_chemical_formula_sum   'Cu3 Ni5 C56'
_cell_volume   889.13194611
_cell_formula_units_Z   1
loop_
 _symmetry_equiv_pos_site_id
 _symmetry_equiv_pos_as_xyz
  1  'x, y, z'
loop_
 _atom_site_type_symbol
 _atom_site_label
 _atom_site_symmetry_multiplicity
 _atom_site_fract_x
 _atom_site_fract_y
 _atom_site_fract_z
 _atom_site_occupancy
  Ni  Ni0  1  0.57171000  0.57171000  0.85731800  1
  Ni  Ni1  1  0.42829000  0.42829000  0.14268200  1
  Ni  Ni2  1  0.50000000  0.50000000  0.50000000  1
  Ni  Ni3  1  0.28666300  0.28666300  0.42777800  1
  Ni  Ni4  1  0.71333700  0.71333700  0.57222200  1
  Cu  Cu5  1  0.14308900  0.14308900  0.71358100  1
  Cu  Cu6  1  0.00000000  0.00000000  0.00000000  1
  Cu  Cu7  1  0.85691100  0.85691100  0.28641900  1
  C  C8  1  0.61056600  0.61056600  0.03631500  1
  C  C9  1  0.75399400  0.75399400  0.75107100  1
  C  C10  1  0.38943400  0.38943400  0.96368500  1
  C  C11  1  0.18202900  0.18202900  0.89353600  1
  C  C12  1  0.96139600  0.96139600  0.82096600  1
  C  C13  1  0.24600600  0.24600600  0.24892900  1
  C  C14  1  0.03860400  0.03860400  0.17903400  1
  C  C15  1  0.46721000  0.46721000  0.32167100  1
  C  C16  1  0.81797100  0.81797100  0.10646400  1
  C  C17  1  0.89228800  0.89228800  0.46700200  1
  C  C18  1  0.10771200  0.10771200  0.53299800  1
  C  C19  1  0.67679800  0.67679800  0.39272000  1
  C  C20  1  0.53279000  0.53279000  0.67832900  1
  C  C21  1  0.32320200  0.32320200  0.60728000  1
  C  C22  1  0.64263800  0.64263800  0.71406100  1
  C  C23  1  0.25406500  0.76684100  0.75178200  1
  C  C24  1  0.37607400  0.88843000  0.96275100  1
  C  C25  1  0.18201400  0.69316200  0.89795200  1
  C  C26  1  0.76684100  0.25406500  0.75178200  1
  C  C27  1  0.14296300  0.14296300  0.21410300  1
  C  C28  1  0.07131000  0.07131000  0.85745500  1
  C  C29  1  0.85703700  0.85703700  0.78589700  1
  C  C30  1  0.50000000  0.50000000  0.00000000  1
  C  C31  1  0.28575600  0.28575600  0.92849900  1
  C  C32  1  0.69316200  0.18201400  0.89795200  1
  C  C33  1  0.44936600  0.96073300  0.81645400  1
  C  C34  1  0.30683800  0.81798600  0.10204800  1
  C  C35  1  0.88843000  0.37607400  0.96275100  1
  C  C36  1  0.62392600  0.11157000  0.03724900  1
  C  C37  1  0.23315900  0.74593500  0.24821800  1
  C  C38  1  0.96073300  0.44936600  0.81645400  1
  C  C39  1  0.81798600  0.30683800  0.10204800  1
  C  C40  1  0.74593500  0.23315900  0.24821800  1
  C  C41  1  0.56926900  0.56926900  0.36277800  1
  C  C42  1  0.35736200  0.35736200  0.28593900  1
  C  C43  1  0.55063400  0.03926700  0.18354600  1
  C  C44  1  0.16928400  0.67359500  0.38919900  1
  C  C45  1  0.92869000  0.92869000  0.14254500  1
  C  C46  1  0.71424400  0.71424400  0.07150100  1
  C  C47  1  0.11157000  0.62392600  0.03724900  1
  C  C48  1  0.32640500  0.83071600  0.61080100  1
  C  C49  1  0.67359500  0.16928400  0.38919900  1
  C  C50  1  0.03926700  0.55063400  0.18354600  1
  C  C51  1  0.48040700  0.96937700  0.32248300  1
  C  C52  1  0.96937700  0.48040700  0.32248300  1
  C  C53  1  0.21193300  0.21193300  0.57601900  1
  C  C54  1  0.59625500  0.10587300  0.53232800  1
  C  C55  1  0.40374500  0.89412700  0.46767200  1
  C  C56  1  0.00000000  0.00000000  0.50000000  1
  C  C57  1  0.78806700  0.78806700  0.42398100  1
  C  C58  1  0.43073100  0.43073100  0.63722200  1
  C  C59  1  0.83071600  0.32640500  0.61080100  1
  C  C60  1  0.10587300  0.59625500  0.53232800  1
  C  C61  1  0.89412700  0.40374500  0.46767200  1
  C  C62  1  0.51959300  0.03062300  0.67751700  1
  C  C63  1  0.03062300  0.51959300  0.67751700  1
