# generated using pymatgen
data_CuNi3C22
_symmetry_space_group_name_H-M   'P 1'
_cell_length_a   6.03610600
_cell_length_b   10.64387300
_cell_length_c   10.65023362
_cell_angle_alpha   60.32643339
_cell_angle_beta   90.00000000
_cell_angle_gamma   90.00000000
_symmetry_Int_Tables_number   1
_chemical_formula_structural   CuNi3C22
_chemical_formula_sum   'Cu2 Ni6 C44'
_cell_volume   594.51864728
_cell_formula_units_Z   2
loop_
 _symmetry_equiv_pos_site_id
 _symmetry_equiv_pos_as_xyz
  1  'x, y, z'
loop_
 _atom_site_type_symbol
 _atom_site_label
 _atom_site_symmetry_multiplicity
 _atom_site_fract_x
 _atom_site_fract_y
 _atom_site_fract_z
 _atom_site_occupancy
  Ni  Ni0  1  0.50000000  0.84879200  0.26360700  1
  Ni  Ni1  1  0.00000000  0.68692500  0.13759000  1
  Ni  Ni2  1  0.50000000  0.26286000  0.89018100  1
  Ni  Ni3  1  0.00000000  0.17827700  0.68649400  1
  Ni  Ni4  1  0.00000000  0.33331800  0.33203900  1
  Ni  Ni5  1  0.00000000  0.13491800  0.17522100  1
  Cu  Cu6  1  0.50000000  0.89436700  0.84832500  1
  Cu  Cu7  1  0.50000000  0.66488300  0.66698600  1
  C  C8  1  0.25086900  0.00021600  0.49789100  1
  C  C9  1  0.25235300  0.49856900  0.50125500  1
  C  C10  1  0.74764700  0.49856900  0.50125500  1
  C  C11  1  0.25201700  0.50286000  0.99970500  1
  C  C12  1  0.74798300  0.50286000  0.99970500  1
  C  C13  1  0.74913100  0.00021600  0.49789100  1
  C  C14  1  0.00000000  0.78550800  0.76984800  1
  C  C15  1  0.25759900  0.99780500  0.99774900  1
  C  C16  1  0.74240100  0.99780500  0.99774900  1
  C  C17  1  0.00000000  0.76574200  0.45315500  1
  C  C18  1  0.00000000  0.45259400  0.78204000  1
  C  C19  1  0.50000000  0.54768200  0.22073300  1
  C  C20  1  0.50000000  0.23128200  0.55051800  1
  C  C21  1  0.50000000  0.22072600  0.23158800  1
  C  C22  1  0.20552800  0.83292700  0.69922100  1
  C  C23  1  0.79447200  0.83292700  0.69922100  1
  C  C24  1  0.50000000  0.89868200  0.47628900  1
  C  C25  1  0.00000000  0.68920600  0.91512500  1
  C  C26  1  0.00000000  0.91262800  0.39997700  1
  C  C27  1  0.50000000  0.63288500  0.89987700  1
  C  C28  1  0.20443500  0.69423900  0.47975400  1
  C  C29  1  0.79556500  0.69423900  0.47975400  1
  C  C30  1  0.20491400  0.48090800  0.82614100  1
  C  C31  1  0.79508600  0.48090800  0.82614100  1
  C  C32  1  0.27576800  0.84950400  0.05519500  1
  C  C33  1  0.72423200  0.84950400  0.05519500  1
  C  C34  1  0.50000000  0.47359600  0.62616300  1
  C  C35  1  0.50000000  0.59647800  0.31966900  1
  C  C36  1  0.00000000  0.39641600  0.69081400  1
  C  C37  1  0.00000000  0.52296700  0.38406700  1
  C  C38  1  0.70139800  0.52239700  0.17321600  1
  C  C39  1  0.29860200  0.52239700  0.17321600  1
  C  C40  1  0.70084700  0.30347800  0.52298000  1
  C  C41  1  0.29915300  0.30347800  0.52298000  1
  C  C42  1  0.27426600  0.07919100  0.84874900  1
  C  C43  1  0.72573400  0.07919100  0.84874900  1
  C  C44  1  0.00000000  0.38425600  0.09115700  1
  C  C45  1  0.50000000  0.08139500  0.60460900  1
  C  C46  1  0.50000000  0.32010400  0.08458700  1
  C  C47  1  0.00000000  0.09442700  0.52162100  1
  C  C48  1  0.70085900  0.17239200  0.30444000  1
  C  C49  1  0.29914100  0.17239200  0.30444000  1
  C  C50  1  0.26695500  0.06005900  0.08256300  1
  C  C51  1  0.73304500  0.06005900  0.08256300  1
