# generated using pymatgen
data_Cu13Ni3C80
_symmetry_space_group_name_H-M   'P 1'
_cell_length_a   5.04713600
_cell_length_b   8.72597605
_cell_length_c   19.50216444
_cell_angle_alpha   98.06852228
_cell_angle_beta   94.92061795
_cell_angle_gamma   89.66399017
_symmetry_Int_Tables_number   1
_chemical_formula_structural   Cu13Ni3C80
_chemical_formula_sum   'Cu13 Ni3 C80'
_cell_volume   847.24544262
_cell_formula_units_Z   1
loop_
 _symmetry_equiv_pos_site_id
 _symmetry_equiv_pos_as_xyz
  1  'x, y, z'
loop_
 _atom_site_type_symbol
 _atom_site_label
 _atom_site_symmetry_multiplicity
 _atom_site_fract_x
 _atom_site_fract_y
 _atom_site_fract_z
 _atom_site_occupancy
  C  C0  1  0.99221200  0.17095900  0.24948000  1
  C  C1  1  0.87557300  0.37543800  0.37501300  1
  C  C2  1  0.74924700  0.25166900  0.00028800  1
  C  C3  1  0.74126900  0.92110400  0.00079300  1
  C  C4  1  0.99108200  0.16924300  0.74996800  1
  C  C5  1  0.76185600  0.58016700  0.50018300  1
  C  C6  1  0.87318600  0.37495100  0.87594600  1
  C  C7  1  0.74158700  0.25281100  0.49998800  1
  C  C8  1  0.74318400  0.91954400  0.49937000  1
  C  C9  1  0.62560500  0.12446200  0.12496500  1
  C  C10  1  0.75731100  0.57858300  0.00004300  1
  C  C11  1  0.50925800  0.33013600  0.24985900  1
  C  C12  1  0.62544200  0.12576600  0.62503700  1
  C  C13  1  0.50274400  0.99806100  0.24965100  1
  C  C14  1  0.49258400  0.67022800  0.24985800  1
  C  C15  1  0.51562800  0.33399000  0.75083700  1
  C  C16  1  0.37558100  0.87490300  0.37450900  1
  C  C17  1  0.50020000  0.00011800  0.75019700  1
  C  C18  1  0.25503500  0.74932800  0.99973700  1
  C  C19  1  0.48501800  0.66615900  0.74928200  1
  C  C20  1  0.24369400  0.42071400  0.99968400  1
  C  C21  1  0.37419700  0.87458700  0.87498400  1
  C  C22  1  0.25740800  0.07891700  0.49980700  1
  C  C23  1  0.25018600  0.74892900  0.49998900  1
  C  C24  1  0.12485800  0.62524200  0.12498100  1
  C  C25  1  0.24378000  0.42045800  0.50062500  1
  C  C26  1  0.00790300  0.83016900  0.25027400  1
  C  C27  1  0.25547600  0.07823900  0.00008200  1
  C  C28  1  0.12533100  0.62475800  0.62464200  1
  C  C29  1  0.99397600  0.50116700  0.25032300  1
  C  C30  1  0.00877200  0.83044000  0.75024000  1
  C  C31  1  0.99918300  0.50047300  0.74990800  1
  Ni  Ni32  1  0.87048500  0.71152000  0.87361900  1
  Ni  Ni33  1  0.37812300  0.53835000  0.37539100  1
  Ni  Ni34  1  0.12823100  0.28809100  0.62511000  1
  Cu  Cu35  1  0.87617300  0.71175200  0.37505000  1
  Cu  Cu36  1  0.87393100  0.04680400  0.37457600  1
  Cu  Cu37  1  0.87853000  0.04746700  0.87581200  1
  Cu  Cu38  1  0.63237000  0.78943900  0.12467800  1
  Cu  Cu39  1  0.61861900  0.45979400  0.12511500  1
  Cu  Cu40  1  0.62720000  0.79775100  0.62542300  1
  Cu  Cu41  1  0.62280800  0.46173800  0.62463800  1
  Cu  Cu42  1  0.37192500  0.20206400  0.37415900  1
  Cu  Cu43  1  0.37131900  0.53871000  0.87509400  1
  Cu  Cu44  1  0.37792800  0.20344800  0.87596000  1
  Cu  Cu45  1  0.11900200  0.95991300  0.12534000  1
  Cu  Cu46  1  0.13101400  0.28973200  0.12468400  1
  Cu  Cu47  1  0.12402400  0.95307200  0.62474900  1
  C  C48  1  0.96567600  0.10169000  0.06862400  1
  C  C49  1  0.92105700  0.78435600  0.06886200  1
  C  C50  1  0.92597700  0.42749700  0.06847300  1
  C  C51  1  0.96429800  0.10355900  0.56878900  1
  C  C52  1  0.82901500  0.96636100  0.18143400  1
  C  C53  1  0.82356400  0.32289900  0.18172100  1
  C  C54  1  0.93599000  0.78814800  0.56896500  1
  C  C55  1  0.92254300  0.42915300  0.56777600  1
  C  C56  1  0.78434500  0.64836700  0.18140200  1
  C  C57  1  0.71377300  0.85938500  0.31919500  1
  C  C58  1  0.81540200  0.96097100  0.68127400  1
  C  C59  1  0.82162500  0.32343100  0.68305000  1
  C  C60  1  0.68046700  0.53594800  0.31834700  1
  C  C61  1  0.68303800  0.17387300  0.31702800  1
  C  C62  1  0.78364700  0.64514100  0.68036200  1
  C  C63  1  0.71262000  0.86044000  0.81847700  1
  C  C64  1  0.46588900  0.60146400  0.06882100  1
  C  C65  1  0.57706300  0.71701000  0.43114900  1
  C  C66  1  0.56452600  0.07538000  0.43206400  1
  C  C67  1  0.67496000  0.53307000  0.81912400  1
  C  C68  1  0.68549300  0.17465700  0.81786100  1
  C  C69  1  0.42807000  0.92591400  0.06814800  1
  C  C70  1  0.41812200  0.28343000  0.06877800  1
  C  C71  1  0.53621100  0.38991300  0.43133500  1
  C  C72  1  0.46574800  0.60758900  0.56933800  1
  C  C73  1  0.56771900  0.71271900  0.93126800  1
  C  C74  1  0.56662900  0.07502500  0.93299600  1
  C  C75  1  0.32361500  0.82432300  0.18160700  1
  C  C76  1  0.33072100  0.46665900  0.18123900  1
  C  C77  1  0.43268700  0.92363500  0.56714100  1
  C  C78  1  0.42892100  0.28477100  0.56833600  1
  C  C79  1  0.53745000  0.38854300  0.93134600  1
  C  C80  1  0.28408200  0.14782600  0.18119000  1
  C  C81  1  0.21438700  0.35423400  0.31870200  1
  C  C82  1  0.31540000  0.82488300  0.68196800  1
  C  C83  1  0.32787500  0.46648000  0.68117200  1
  C  C84  1  0.17166300  0.67978100  0.31759900  1
  C  C85  1  0.18580100  0.03832300  0.31849300  1
  C  C86  1  0.28667000  0.13985100  0.68164700  1
  C  C87  1  0.21713800  0.35905600  0.82014800  1
  C  C88  1  0.07352000  0.57259200  0.43327800  1
  C  C89  1  0.06377200  0.20998200  0.43099200  1
  C  C90  1  0.17399100  0.67854300  0.81620000  1
  C  C91  1  0.18537400  0.04034700  0.81888400  1
  C  C92  1  0.03514800  0.89327000  0.43010400  1
  C  C93  1  0.07979400  0.57070800  0.93263200  1
  C  C94  1  0.06393300  0.21168400  0.93136800  1
  C  C95  1  0.03453900  0.89576800  0.93135500  1
