# generated using pymatgen
data_CuNiC7
_symmetry_space_group_name_H-M   'P 1'
_cell_length_a   5.17723100
_cell_length_b   7.41347564
_cell_length_c   10.29773511
_cell_angle_alpha   102.38970136
_cell_angle_beta   97.61891547
_cell_angle_gamma   105.28857093
_symmetry_Int_Tables_number   1
_chemical_formula_structural   CuNiC7
_chemical_formula_sum   'Cu4 Ni4 C28'
_cell_volume   364.79115080
_cell_formula_units_Z   4
loop_
 _symmetry_equiv_pos_site_id
 _symmetry_equiv_pos_as_xyz
  1  'x, y, z'
loop_
 _atom_site_type_symbol
 _atom_site_label
 _atom_site_symmetry_multiplicity
 _atom_site_fract_x
 _atom_site_fract_y
 _atom_site_fract_z
 _atom_site_occupancy
  C  C0  1  0.36072200  0.10506800  0.28879200  1
  C  C1  1  0.13063000  0.38763700  0.21527900  1
  C  C2  1  0.86878300  0.61677900  0.78091000  1
  C  C3  1  0.64301300  0.89405500  0.71545100  1
  C  C4  1  0.74986500  0.74840200  0.25103300  1
  C  C5  1  0.50437200  0.50226800  0.50139500  1
  C  C6  1  0.99363400  0.99715400  0.99987500  1
  C  C7  1  0.25064300  0.25084300  0.74778900  1
  Ni  Ni8  1  0.61262600  0.29460500  0.06253700  1
  Ni  Ni9  1  0.87754800  0.20017000  0.43427300  1
  Ni  Ni10  1  0.13326200  0.80154100  0.56804300  1
  Ni  Ni11  1  0.37376600  0.70261300  0.93424900  1
  Cu  Cu12  1  0.15448200  0.79235800  0.13812300  1
  Cu  Cu13  1  0.34735200  0.70386700  0.36559200  1
  Cu  Cu14  1  0.66251100  0.30232000  0.63603300  1
  Cu  Cu15  1  0.83914900  0.20129900  0.86097400  1
  C  C16  1  0.78626700  0.15999400  0.08917800  1
  C  C17  1  0.33757300  0.22545000  0.10968200  1
  C  C18  1  0.41146600  0.70359700  0.08452700  1
  C  C19  1  0.79494900  0.49535600  0.15497600  1
  C  C20  1  0.03889400  0.87957200  0.16199100  1
  C  C21  1  0.14360900  0.26295400  0.38192300  1
  C  C22  1  0.70140900  0.33707700  0.41022300  1
  C  C23  1  0.45860500  0.61352300  0.34038400  1
  C  C24  1  0.31870200  0.00472100  0.65765400  1
  C  C25  1  0.08911200  0.79469500  0.41636700  1
  C  C26  1  0.93287900  0.20771300  0.58709700  1
  C  C27  1  0.68977100  0.99807800  0.34549500  1
  C  C28  1  0.55451000  0.39298300  0.66024200  1
  C  C29  1  0.30544900  0.66329000  0.59628100  1
  C  C30  1  0.86287400  0.74200600  0.61803300  1
  C  C31  1  0.95443000  0.11578600  0.83984100  1
  C  C32  1  0.19724500  0.50135500  0.83977100  1
  C  C33  1  0.56510900  0.29186300  0.91071300  1
  C  C34  1  0.65354900  0.77148700  0.89005500  1
  C  C35  1  0.20123700  0.83752100  0.90522000  1
