# generated using pymatgen
data_Cu5Ni7C39
_symmetry_space_group_name_H-M   'P 1'
_cell_length_a   5.17228954
_cell_length_b   5.17228954
_cell_length_c   24.16786700
_cell_angle_alpha   90.00000000
_cell_angle_beta   90.00000000
_cell_angle_gamma   119.99999407
_symmetry_Int_Tables_number   1
_chemical_formula_structural   Cu5Ni7C39
_chemical_formula_sum   'Cu5 Ni7 C39'
_cell_volume   559.93115915
_cell_formula_units_Z   1
loop_
 _symmetry_equiv_pos_site_id
 _symmetry_equiv_pos_as_xyz
  1  'x, y, z'
loop_
 _atom_site_type_symbol
 _atom_site_label
 _atom_site_symmetry_multiplicity
 _atom_site_fract_x
 _atom_site_fract_y
 _atom_site_fract_z
 _atom_site_occupancy
  C  C0  1  0.00000000  0.00000000  0.27507000  1
  C  C1  1  0.66666700  0.33333300  0.08206300  1
  C  C2  1  0.66666700  0.33333300  0.37315200  1
  C  C3  1  0.66666700  0.33333300  0.62742000  1
  C  C4  1  0.66666700  0.33333300  0.92357800  1
  C  C5  1  0.00000000  0.00000000  0.79327500  1
  C  C6  1  0.00000000  0.00000000  0.52702400  1
  C  C7  1  0.33333300  0.66666700  0.20386800  1
  C  C8  1  0.33333300  0.66666700  0.47489300  1
  Ni  Ni9  1  0.00000000  0.00000000  0.89562800  1
  Ni  Ni10  1  0.00000000  0.00000000  0.01547300  1
  Ni  Ni11  1  0.00000000  0.00000000  0.68566800  1
  Ni  Ni12  1  0.33333300  0.66666700  0.71415500  1
  Ni  Ni13  1  0.33333300  0.66666700  0.98476000  1
  Ni  Ni14  1  0.33333300  0.66666700  0.10749400  1
  Ni  Ni15  1  0.33333300  0.66666700  0.59207300  1
  Cu  Cu16  1  0.00000000  0.00000000  0.40310300  1
  Cu  Cu17  1  0.66666700  0.33333300  0.20415200  1
  Cu  Cu18  1  0.66666700  0.33333300  0.50154500  1
  Cu  Cu19  1  0.66666700  0.33333300  0.80276000  1
  Cu  Cu20  1  0.33333300  0.66666700  0.30828800  1
  C  C21  1  0.58540800  0.00094800  0.14917900  1
  C  C22  1  0.67264400  0.96491700  0.35220700  1
  C  C23  1  0.67583300  0.99647400  0.74563000  1
  C  C24  1  0.95827400  0.28995800  0.45292900  1
  C  C25  1  0.64443600  0.69959100  0.04565100  1
  C  C26  1  0.05515600  0.35556400  0.04565100  1
  C  C27  1  0.71004200  0.66831600  0.45292900  1
  C  C28  1  0.00352600  0.67935900  0.74563000  1
  C  C29  1  0.29227300  0.32735600  0.35220700  1
  C  C30  1  0.99905200  0.58446000  0.14917900  1
  C  C31  1  0.32064100  0.32416700  0.74563000  1
  C  C32  1  0.03508300  0.70772700  0.35220700  1
  C  C33  1  0.00518900  0.62594900  0.55083100  1
  C  C34  1  0.41554000  0.41459200  0.14917900  1
  C  C35  1  0.03271200  0.71963700  0.95145600  1
  C  C36  1  0.30040900  0.94484400  0.04565100  1
  C  C37  1  0.92491600  0.25739400  0.84801900  1
  C  C38  1  0.33168400  0.04172600  0.45292900  1
  C  C39  1  0.29339900  0.94164700  0.65282800  1
  C  C40  1  0.00444900  0.37971500  0.25279100  1
  C  C41  1  0.33247800  0.07508400  0.84801900  1
  C  C42  1  0.05835300  0.35175200  0.65282800  1
  C  C43  1  0.37526500  0.99555100  0.25279100  1
  C  C44  1  0.62076000  0.99481100  0.55083100  1
  C  C45  1  0.28036300  0.31307600  0.95145600  1
  C  C46  1  0.68692400  0.96728800  0.95145600  1
  C  C47  1  0.37405100  0.37924000  0.55083100  1
  C  C48  1  0.62028500  0.62473500  0.25279100  1
  C  C49  1  0.64824800  0.70660100  0.65282800  1
  C  C50  1  0.74260600  0.66752200  0.84801900  1
