# generated using pymatgen
data_Cu2NiC12
_symmetry_space_group_name_H-M   'P 1'
_cell_length_a   10.42902500
_cell_length_b   8.27830400
_cell_length_c   9.01881765
_cell_angle_alpha   79.92162637
_cell_angle_beta   90.00000000
_cell_angle_gamma   90.00000000
_symmetry_Int_Tables_number   1
_chemical_formula_structural   Cu2NiC12
_chemical_formula_sum   'Cu8 Ni4 C48'
_cell_volume   766.62146685
_cell_formula_units_Z   4
loop_
 _symmetry_equiv_pos_site_id
 _symmetry_equiv_pos_as_xyz
  1  'x, y, z'
loop_
 _atom_site_type_symbol
 _atom_site_label
 _atom_site_symmetry_multiplicity
 _atom_site_fract_x
 _atom_site_fract_y
 _atom_site_fract_z
 _atom_site_occupancy
  C  C0  1  0.65920200  0.10435000  0.40137100  1
  C  C1  1  0.16393600  0.14653100  0.35630500  1
  C  C2  1  0.34567300  0.15838200  0.82808300  1
  C  C3  1  0.42229200  0.23066400  0.52098600  1
  C  C4  1  0.92229200  0.26933600  0.47901400  1
  C  C5  1  0.84567300  0.34161800  0.17191700  1
  C  C6  1  0.66393600  0.35346900  0.64369500  1
  C  C7  1  0.15920200  0.39565000  0.59862900  1
  C  C8  1  0.84079800  0.60435000  0.40137100  1
  C  C9  1  0.33606400  0.64653100  0.35630500  1
  C  C10  1  0.15432700  0.65838200  0.82808300  1
  C  C11  1  0.07770800  0.73066400  0.52098600  1
  C  C12  1  0.57770800  0.76933600  0.47901400  1
  C  C13  1  0.65432700  0.84161800  0.17191700  1
  C  C14  1  0.83606400  0.85346900  0.64369500  1
  C  C15  1  0.34079800  0.89565000  0.59862900  1
  Ni  Ni16  1  0.85324100  0.09406400  0.91349000  1
  Ni  Ni17  1  0.35324100  0.40593600  0.08651000  1
  Ni  Ni18  1  0.64675900  0.59406400  0.91349000  1
  Ni  Ni19  1  0.14675900  0.90593600  0.08651000  1
  Cu  Cu20  1  0.40713800  0.01461500  0.24870700  1
  Cu  Cu21  1  0.09286200  0.51461500  0.24870700  1
  Cu  Cu22  1  0.90713800  0.48538500  0.75129300  1
  Cu  Cu23  1  0.59286200  0.98538500  0.75129300  1
  Cu  Cu24  1  0.09656400  0.04678900  0.67931100  1
  Cu  Cu25  1  0.59656400  0.45321100  0.32068900  1
  Cu  Cu26  1  0.40343600  0.54678900  0.67931100  1
  Cu  Cu27  1  0.90343600  0.95321100  0.32068900  1
  C  C28  1  0.04875300  0.99128700  0.27512100  1
  C  C29  1  0.34829200  0.08971200  0.37938300  1
  C  C30  1  0.39476500  0.14019700  0.09489400  1
  C  C31  1  0.45287200  0.03565400  0.71283200  1
  C  C32  1  0.84453500  0.11378200  0.35947800  1
  C  C33  1  0.17009800  0.10473800  0.80784300  1
  C  C34  1  0.67338500  0.13946700  0.77612400  1
  C  C35  1  0.09509400  0.18928700  0.54126500  1
  C  C36  1  0.59509400  0.31071300  0.45873500  1
  C  C37  1  0.17338500  0.36053300  0.22387600  1
  C  C38  1  0.67009800  0.39526200  0.19215700  1
  C  C39  1  0.34453500  0.38621800  0.64052200  1
  C  C40  1  0.95287200  0.46434600  0.28716800  1
  C  C41  1  0.89476500  0.35980300  0.90510600  1
  C  C42  1  0.45124700  0.49128700  0.27512100  1
  C  C43  1  0.84829200  0.41028800  0.62061700  1
  C  C44  1  0.15170800  0.58971200  0.37938300  1
  C  C45  1  0.54875300  0.50871300  0.72487900  1
  C  C46  1  0.10523500  0.64019700  0.09489400  1
  C  C47  1  0.04712800  0.53565400  0.71283200  1
  C  C48  1  0.65546500  0.61378200  0.35947800  1
  C  C49  1  0.32990200  0.60473800  0.80784300  1
  C  C50  1  0.82661500  0.63946700  0.77612400  1
  C  C51  1  0.40490600  0.68928700  0.54126500  1
  C  C52  1  0.90490600  0.81071300  0.45873500  1
  C  C53  1  0.32661500  0.86053300  0.22387600  1
  C  C54  1  0.82990200  0.89526200  0.19215700  1
  C  C55  1  0.15546500  0.88621800  0.64052200  1
  C  C56  1  0.54712800  0.96434600  0.28716800  1
  C  C57  1  0.60523500  0.85980300  0.90510600  1
  C  C58  1  0.65170800  0.91028800  0.62061700  1
  C  C59  1  0.95124700  0.00871300  0.72487900  1
