# generated using pymatgen
data_CuNiC8
_symmetry_space_group_name_H-M   'P 1'
_cell_length_a   11.22291700
_cell_length_b   4.94662700
_cell_length_c   11.85549504
_cell_angle_alpha   72.22489608
_cell_angle_beta   90.00000000
_cell_angle_gamma   90.00000000
_symmetry_Int_Tables_number   1
_chemical_formula_structural   CuNiC8
_chemical_formula_sum   'Cu4 Ni4 C32'
_cell_volume   626.74535351
_cell_formula_units_Z   4
loop_
 _symmetry_equiv_pos_site_id
 _symmetry_equiv_pos_as_xyz
  1  'x, y, z'
loop_
 _atom_site_type_symbol
 _atom_site_label
 _atom_site_symmetry_multiplicity
 _atom_site_fract_x
 _atom_site_fract_y
 _atom_site_fract_z
 _atom_site_occupancy
  C  C0  1  0.60370200  0.59077300  0.65691800  1
  C  C1  1  0.89629800  0.59077300  0.15691800  1
  C  C2  1  0.39629800  0.40922700  0.34308200  1
  C  C3  1  0.10370200  0.40922700  0.84308200  1
  C  C4  1  0.64000900  0.83707900  0.87659200  1
  C  C5  1  0.85999100  0.83707900  0.37659200  1
  C  C6  1  0.35999100  0.16292100  0.12340800  1
  C  C7  1  0.14000900  0.16292100  0.62340800  1
  Ni  Ni8  1  0.82020600  0.36159700  0.85086900  1
  Ni  Ni9  1  0.67979400  0.36159700  0.35086900  1
  Ni  Ni10  1  0.17979400  0.63840300  0.14913100  1
  Ni  Ni11  1  0.32020600  0.63840300  0.64913100  1
  Cu  Cu12  1  0.46434600  0.35557400  0.80339300  1
  Cu  Cu13  1  0.03565400  0.35557400  0.30339300  1
  Cu  Cu14  1  0.53565400  0.64442600  0.19660700  1
  Cu  Cu15  1  0.96434600  0.64442600  0.69660700  1
  C  C16  1  0.55339600  0.33363200  0.79721600  1
  C  C17  1  0.94660400  0.33363200  0.29721600  1
  C  C18  1  0.44660400  0.66636800  0.20278400  1
  C  C19  1  0.05339600  0.66636800  0.70278400  1
  C  C20  1  0.62004900  0.88382800  0.72035200  1
  C  C21  1  0.87995100  0.88382800  0.22035200  1
  C  C22  1  0.37995100  0.11617200  0.27964800  1
  C  C23  1  0.12004900  0.11617200  0.77964800  1
  C  C24  1  0.77722600  0.04500300  0.87453900  1
  C  C25  1  0.72277400  0.04500300  0.37453900  1
  C  C26  1  0.22277400  0.95499700  0.12546100  1
  C  C27  1  0.27722600  0.95499700  0.62546100  1
  C  C28  1  0.94667900  0.32311800  0.90912400  1
  C  C29  1  0.55332100  0.32311800  0.40912400  1
  C  C30  1  0.05332100  0.67688200  0.09087600  1
  C  C31  1  0.44667900  0.67688200  0.59087600  1
  C  C32  1  0.23834200  0.49585300  0.57574300  1
  C  C33  1  0.26165800  0.49585300  0.07574300  1
  C  C34  1  0.76165800  0.50414700  0.42425700  1
  C  C35  1  0.73834200  0.50414700  0.92425700  1
  C  C36  1  0.82299000  0.52511700  0.72043100  1
  C  C37  1  0.67701000  0.52511700  0.22043100  1
  C  C38  1  0.17701000  0.47488300  0.27956900  1
  C  C39  1  0.32299000  0.47488300  0.77956900  1
