# generated using pymatgen
data_CuNiC5
_symmetry_space_group_name_H-M   'P 1'
_cell_length_a   6.04214300
_cell_length_b   8.85068442
_cell_length_c   6.20417190
_cell_angle_alpha   89.99933914
_cell_angle_beta   90.00034657
_cell_angle_gamma   90.00028804
_symmetry_Int_Tables_number   1
_chemical_formula_structural   CuNiC5
_chemical_formula_sum   'Cu4 Ni4 C20'
_cell_volume   331.78112680
_cell_formula_units_Z   4
loop_
 _symmetry_equiv_pos_site_id
 _symmetry_equiv_pos_as_xyz
  1  'x, y, z'
loop_
 _atom_site_type_symbol
 _atom_site_label
 _atom_site_symmetry_multiplicity
 _atom_site_fract_x
 _atom_site_fract_y
 _atom_site_fract_z
 _atom_site_occupancy
  C  C0  1  0.25000000  0.10443900  0.00000100  1
  C  C1  1  0.75000000  0.60443700  0.50000100  1
  C  C2  1  0.75000000  0.89556200  0.99999900  1
  C  C3  1  0.25000100  0.39556400  0.50000000  1
  Ni  Ni4  1  0.99999900  0.00000000  0.50000000  1
  Ni  Ni5  1  0.00000100  0.50000000  0.00000000  1
  Ni  Ni6  1  0.49999800  0.50000100  0.00000100  1
  Ni  Ni7  1  0.50000000  0.00000000  0.50000100  1
  Cu  Cu8  1  0.74999900  0.25000100  0.25000000  1
  Cu  Cu9  1  0.25000000  0.75000000  0.74999900  1
  Cu  Cu10  1  0.74999700  0.24999900  0.75000000  1
  Cu  Cu11  1  0.25000400  0.75000100  0.25000000  1
  C  C12  1  0.52348400  0.25022200  0.99999800  1
  C  C13  1  0.02348900  0.75022500  0.49999800  1
  C  C14  1  0.97650600  0.25022300  0.00000100  1
  C  C15  1  0.47651400  0.75022100  0.49999900  1
  C  C16  1  0.02349200  0.74977600  0.99999300  1
  C  C17  1  0.52348700  0.24977800  0.50000100  1
  C  C18  1  0.47651500  0.74978000  0.00000600  1
  C  C19  1  0.97651300  0.24977400  0.50000600  1
  C  C20  1  0.74998700  0.47295800  0.23030300  1
  C  C21  1  0.25000500  0.97296000  0.73029800  1
  C  C22  1  0.75001200  0.47296100  0.76970100  1
  C  C23  1  0.24999800  0.97296200  0.26970700  1
  C  C24  1  0.25001100  0.52703800  0.76969700  1
  C  C25  1  0.74999700  0.02704100  0.26970000  1
  C  C26  1  0.24998900  0.52703700  0.23029500  1
  C  C27  1  0.75000200  0.02703900  0.73029500  1
