# generated using pymatgen
data_CuNi5C39
_symmetry_space_group_name_H-M   'P 1'
_cell_length_a   8.88515900
_cell_length_b   10.80879726
_cell_length_c   11.20751984
_cell_angle_alpha   65.99263932
_cell_angle_beta   75.40209904
_cell_angle_gamma   71.05185106
_symmetry_Int_Tables_number   1
_chemical_formula_structural   CuNi5C39
_chemical_formula_sum   'Cu2 Ni10 C78'
_cell_volume   920.95469737
_cell_formula_units_Z   2
loop_
 _symmetry_equiv_pos_site_id
 _symmetry_equiv_pos_as_xyz
  1  'x, y, z'
loop_
 _atom_site_type_symbol
 _atom_site_label
 _atom_site_symmetry_multiplicity
 _atom_site_fract_x
 _atom_site_fract_y
 _atom_site_fract_z
 _atom_site_occupancy
  C  C0  1  0.32016500  0.91586400  0.77994400  1
  C  C1  1  0.67983500  0.08413600  0.22005600  1
  Ni  Ni2  1  0.38424300  0.78357700  0.44863100  1
  Ni  Ni3  1  0.69674700  0.73394700  0.24551700  1
  Ni  Ni4  1  0.35069400  0.55582000  0.72576700  1
  Ni  Ni5  1  0.67328200  0.50371700  0.52243100  1
  Ni  Ni6  1  0.36602000  0.72506400  0.19715700  1
  Ni  Ni7  1  0.63398000  0.27493600  0.80284300  1
  Ni  Ni8  1  0.32671800  0.49628300  0.47756900  1
  Ni  Ni9  1  0.64930600  0.44418000  0.27423300  1
  Ni  Ni10  1  0.30325300  0.26605300  0.75448300  1
  Ni  Ni11  1  0.61575700  0.21642300  0.55136900  1
  Cu  Cu12  1  0.77465800  0.72817800  0.79298300  1
  Cu  Cu13  1  0.22534200  0.27182200  0.20701700  1
  C  C14  1  0.64822400  0.98901200  0.81684700  1
  C  C15  1  0.95216000  0.89234800  0.83773000  1
  C  C16  1  0.94745100  0.93657700  0.65562700  1
  C  C17  1  0.60817700  0.87103200  0.95876100  1
  C  C18  1  0.97247900  0.70824000  0.95720300  1
  C  C19  1  0.96117700  0.84073900  0.57573300  1
  C  C20  1  0.67490000  0.89928600  0.55847100  1
  C  C21  1  0.60705600  0.76250900  0.60127500  1
  C  C22  1  0.56437800  0.60066400  0.99906500  1
  C  C23  1  0.91566700  0.75655600  0.41863600  1
  C  C24  1  0.57686200  0.55378700  0.87708900  1
  C  C25  1  0.06740800  0.98450200  0.11761500  1
  C  C26  1  0.86393900  0.49562600  0.71171200  1
  C  C27  1  0.05329400  0.83160300  0.36468000  1
  C  C28  1  0.98434400  0.48675100  0.24879000  1
  C  C29  1  0.87434800  0.59732400  0.03674900  1
  C  C30  1  0.12565200  0.40267600  0.96325100  1
  C  C31  1  0.01565600  0.51324900  0.75121000  1
  C  C32  1  0.94670600  0.16839700  0.63532000  1
  C  C33  1  0.13606100  0.50437400  0.28828800  1
  C  C34  1  0.93259200  0.01549800  0.88238500  1
  C  C35  1  0.42313800  0.44621300  0.12291100  1
  C  C36  1  0.08433300  0.24344400  0.58136400  1
  C  C37  1  0.43562200  0.39933600  0.00093500  1
  C  C38  1  0.39294400  0.23749100  0.39872500  1
  C  C39  1  0.32510000  0.10071400  0.44152900  1
  C  C40  1  0.03882300  0.15926100  0.42426700  1
  C  C41  1  0.02752100  0.29176000  0.04279700  1
  C  C42  1  0.39182300  0.12896800  0.04123900  1
  C  C43  1  0.05254900  0.06342300  0.34437300  1
  C  C44  1  0.04784000  0.10765200  0.16227000  1
  C  C45  1  0.35177600  0.01098800  0.18315300  1
  C  C46  1  0.00923200  0.93086500  0.87179100  1
  C  C47  1  0.64173700  0.89129800  0.86236400  1
  C  C48  1  0.94318900  0.84379300  0.66597400  1
  C  C49  1  0.92139800  0.64692600  0.94569600  1
  C  C50  1  0.94263200  0.84057700  0.41141200  1
  C  C51  1  0.63553000  0.82444700  0.63355900  1
  C  C52  1  0.29253600  0.90572900  0.51208800  1
  C  C53  1  0.59580000  0.62550700  0.90168200  1
  C  C54  1  0.56133600  0.84189800  0.34537300  1
  C  C55  1  0.90460300  0.55974700  0.73064000  1
  C  C56  1  0.82886800  0.82276500  0.16223500  1
  C  C57  1  0.26287600  0.67594600  0.78996000  1
  C  C58  1  0.27868900  0.83712800  0.30411400  1
  C  C59  1  0.52177700  0.64706900  0.58970800  1
  C  C60  1  0.54436100  0.80029600  0.13052200  1
  C  C61  1  0.79288200  0.61298100  0.41436500  1
  C  C62  1  0.26076600  0.63768100  0.55360500  1
  C  C63  1  0.50585200  0.44117800  0.83768200  1
  C  C64  1  0.25685400  0.80828600  0.07805600  1
  C  C65  1  0.51466500  0.59550200  0.38119200  1
  C  C66  1  0.76310600  0.40596600  0.66608600  1
  C  C67  1  0.78190900  0.56524600  0.20429300  1
  C  C68  1  0.21809100  0.43475400  0.79570700  1
  C  C69  1  0.23689400  0.59403400  0.33391400  1
  C  C70  1  0.48533500  0.40449800  0.61880800  1
  C  C71  1  0.74314600  0.19171400  0.92194400  1
  C  C72  1  0.49414800  0.55882200  0.16231800  1
  C  C73  1  0.73923400  0.36231900  0.44639500  1
  C  C74  1  0.20711800  0.38701900  0.58563500  1
  C  C75  1  0.45563900  0.19970400  0.86947800  1
  C  C76  1  0.47822300  0.35293100  0.41029200  1
  C  C77  1  0.72131100  0.16287200  0.69588600  1
  C  C78  1  0.73712400  0.32405400  0.21004000  1
  C  C79  1  0.17113200  0.17723500  0.83776500  1
  C  C80  1  0.09539700  0.44025300  0.26936000  1
  C  C81  1  0.43866400  0.15810200  0.65462700  1
  C  C82  1  0.40420000  0.37449300  0.09831800  1
  C  C83  1  0.70746400  0.09427100  0.48791200  1
  C  C84  1  0.36447000  0.17555300  0.36644100  1
  C  C85  1  0.05736800  0.15942300  0.58858800  1
  C  C86  1  0.07860200  0.35307400  0.05430400  1
  C  C87  1  0.05681100  0.15620700  0.33402600  1
  C  C88  1  0.35826300  0.10870200  0.13763600  1
  C  C89  1  0.99076800  0.06913500  0.12820900  1
