# generated using pymatgen
data_Cu12Ni2C5
_symmetry_space_group_name_H-M   'P 1'
_cell_length_a   10.59062100
_cell_length_b   10.59062100
_cell_length_c   10.59062100
_cell_angle_alpha   90.00000000
_cell_angle_beta   90.00000000
_cell_angle_gamma   90.00000000
_symmetry_Int_Tables_number   1
_chemical_formula_structural   Cu12Ni2C5
_chemical_formula_sum   'Cu48 Ni8 C20'
_cell_volume   1187.85732316
_cell_formula_units_Z   4
loop_
 _symmetry_equiv_pos_site_id
 _symmetry_equiv_pos_as_xyz
  1  'x, y, z'
loop_
 _atom_site_type_symbol
 _atom_site_label
 _atom_site_symmetry_multiplicity
 _atom_site_fract_x
 _atom_site_fract_y
 _atom_site_fract_z
 _atom_site_occupancy
  C  C0  1  0.91889400  0.41889400  0.08110600  1
  C  C1  1  0.41889400  0.08110600  0.91889400  1
  C  C2  1  0.08110600  0.91889400  0.41889400  1
  C  C3  1  0.58110600  0.58110600  0.58110600  1
  C  C4  1  0.66118700  0.16118700  0.33881300  1
  C  C5  1  0.16118700  0.33881300  0.66118700  1
  C  C6  1  0.33881300  0.66118700  0.16118700  1
  C  C7  1  0.83881300  0.83881300  0.83881300  1
  C  C8  1  0.23945800  0.37515300  0.97531100  1
  C  C9  1  0.02468900  0.73945800  0.12484700  1
  C  C10  1  0.87515300  0.52468900  0.76054200  1
  C  C11  1  0.73945800  0.12484700  0.02468900  1
  C  C12  1  0.52468900  0.76054200  0.87515300  1
  C  C13  1  0.37515300  0.97531100  0.23945800  1
  C  C14  1  0.76054200  0.87515300  0.52468900  1
  C  C15  1  0.97531100  0.23945800  0.37515300  1
  C  C16  1  0.12484700  0.02468900  0.73945800  1
  C  C17  1  0.26054200  0.62484700  0.47531100  1
  C  C18  1  0.47531100  0.26054200  0.62484700  1
  C  C19  1  0.62484700  0.47531100  0.26054200  1
  Ni  Ni20  1  0.43491900  0.93491900  0.56508100  1
  Ni  Ni21  1  0.93491900  0.56508100  0.43491900  1
  Ni  Ni22  1  0.56508100  0.43491900  0.93491900  1
  Ni  Ni23  1  0.06508100  0.06508100  0.06508100  1
  Ni  Ni24  1  0.19891100  0.69891100  0.80108900  1
  Ni  Ni25  1  0.69891100  0.80108900  0.19891100  1
  Ni  Ni26  1  0.80108900  0.19891100  0.69891100  1
  Ni  Ni27  1  0.30108900  0.30108900  0.30108900  1
  Cu  Cu28  1  0.10513500  0.34289800  0.00023200  1
  Cu  Cu29  1  0.99976800  0.60513500  0.15710200  1
  Cu  Cu30  1  0.84289800  0.49976800  0.89486500  1
  Cu  Cu31  1  0.60513500  0.15710200  0.99976800  1
  Cu  Cu32  1  0.49976800  0.89486500  0.84289800  1
  Cu  Cu33  1  0.34289800  0.00023200  0.10513500  1
  Cu  Cu34  1  0.89486500  0.84289800  0.49976800  1
  Cu  Cu35  1  0.00023200  0.10513500  0.34289800  1
  Cu  Cu36  1  0.15710200  0.99976800  0.60513500  1
  Cu  Cu37  1  0.39486500  0.65710200  0.50023200  1
  Cu  Cu38  1  0.50023200  0.39486500  0.65710200  1
  Cu  Cu39  1  0.65710200  0.50023200  0.39486500  1
  Cu  Cu40  1  0.31588500  0.25954500  0.99458900  1
  Cu  Cu41  1  0.00541100  0.81588500  0.24045500  1
  Cu  Cu42  1  0.75954500  0.50541100  0.68411500  1
  Cu  Cu43  1  0.81588500  0.24045500  0.00541100  1
  Cu  Cu44  1  0.50541100  0.68411500  0.75954500  1
  Cu  Cu45  1  0.25954500  0.99458900  0.31588500  1
  Cu  Cu46  1  0.68411500  0.75954500  0.50541100  1
  Cu  Cu47  1  0.99458900  0.31588500  0.25954500  1
  Cu  Cu48  1  0.24045500  0.00541100  0.81588500  1
  Cu  Cu49  1  0.18411500  0.74045500  0.49458900  1
  Cu  Cu50  1  0.49458900  0.18411500  0.74045500  1
  Cu  Cu51  1  0.74045500  0.49458900  0.18411500  1
  Cu  Cu52  1  0.25274400  0.41852100  0.84160600  1
  Cu  Cu53  1  0.15839400  0.75274400  0.08147900  1
  Cu  Cu54  1  0.91852100  0.65839400  0.74725600  1
  Cu  Cu55  1  0.75274400  0.08147900  0.15839400  1
  Cu  Cu56  1  0.65839400  0.74725600  0.91852100  1
  Cu  Cu57  1  0.41852100  0.84160600  0.25274400  1
  Cu  Cu58  1  0.74725600  0.91852100  0.65839400  1
  Cu  Cu59  1  0.84160600  0.25274400  0.41852100  1
  Cu  Cu60  1  0.08147900  0.15839400  0.75274400  1
  Cu  Cu61  1  0.24725600  0.58147900  0.34160600  1
  Cu  Cu62  1  0.34160600  0.24725600  0.58147900  1
  Cu  Cu63  1  0.58147900  0.34160600  0.24725600  1
  Cu  Cu64  1  0.28431000  0.47424900  0.06180600  1
  Cu  Cu65  1  0.93819400  0.78431000  0.02575100  1
  Cu  Cu66  1  0.97424900  0.43819400  0.71569000  1
  Cu  Cu67  1  0.78431000  0.02575100  0.93819400  1
  Cu  Cu68  1  0.43819400  0.71569000  0.97424900  1
  Cu  Cu69  1  0.47424900  0.06180600  0.28431000  1
  Cu  Cu70  1  0.71569000  0.97424900  0.43819400  1
  Cu  Cu71  1  0.06180600  0.28431000  0.47424900  1
  Cu  Cu72  1  0.02575100  0.93819400  0.78431000  1
  Cu  Cu73  1  0.21569000  0.52575100  0.56180600  1
  Cu  Cu74  1  0.56180600  0.21569000  0.52575100  1
  Cu  Cu75  1  0.52575100  0.56180600  0.21569000  1
