# generated using pymatgen
data_CuNi2C7
_symmetry_space_group_name_H-M   'P 1'
_cell_length_a   5.11937269
_cell_length_b   5.11937269
_cell_length_c   10.94514900
_cell_angle_alpha   90.00000000
_cell_angle_beta   90.00000000
_cell_angle_gamma   120.00000892
_symmetry_Int_Tables_number   1
_chemical_formula_structural   CuNi2C7
_chemical_formula_sum   'Cu1 Ni2 C7'
_cell_volume   248.41954695
_cell_formula_units_Z   1
loop_
 _symmetry_equiv_pos_site_id
 _symmetry_equiv_pos_as_xyz
  1  'x, y, z'
loop_
 _atom_site_type_symbol
 _atom_site_label
 _atom_site_symmetry_multiplicity
 _atom_site_fract_x
 _atom_site_fract_y
 _atom_site_fract_z
 _atom_site_occupancy
  Ni  Ni0  1  0.00000000  0.00000000  0.73396300  1
  Ni  Ni1  1  0.00000000  0.00000000  0.26603700  1
  Cu  Cu2  1  0.00000000  0.00000000  0.50000000  1
  C  C3  1  0.00000000  0.00000000  0.00000000  1
  C  C4  1  0.50000000  0.00000000  0.75049500  1
  C  C5  1  0.50000000  0.50000000  0.75049500  1
  C  C6  1  0.00000000  0.50000000  0.75049500  1
  C  C7  1  0.50000000  0.00000000  0.24950500  1
  C  C8  1  0.50000000  0.50000000  0.24950500  1
  C  C9  1  0.00000000  0.50000000  0.24950500  1
