# generated using pymatgen
data_Cu(NiC4)2
_symmetry_space_group_name_H-M   'P 1'
_cell_length_a   7.03698200
_cell_length_b   9.97038800
_cell_length_c   13.80194300
_cell_angle_alpha   90.00000000
_cell_angle_beta   90.00000000
_cell_angle_gamma   90.00000000
_symmetry_Int_Tables_number   1
_chemical_formula_structural   Cu(NiC4)2
_chemical_formula_sum   'Cu4 Ni8 C32'
_cell_volume   968.36420795
_cell_formula_units_Z   4
loop_
 _symmetry_equiv_pos_site_id
 _symmetry_equiv_pos_as_xyz
  1  'x, y, z'
loop_
 _atom_site_type_symbol
 _atom_site_label
 _atom_site_symmetry_multiplicity
 _atom_site_fract_x
 _atom_site_fract_y
 _atom_site_fract_z
 _atom_site_occupancy
  C  C0  1  0.30726600  0.25000000  0.61604400  1
  C  C1  1  0.19273400  0.25000000  0.11604400  1
  C  C2  1  0.69273400  0.75000000  0.38395600  1
  C  C3  1  0.80726600  0.75000000  0.88395600  1
  C  C4  1  0.53266200  0.16866700  0.45519400  1
  C  C5  1  0.96733800  0.33133300  0.95519400  1
  C  C6  1  0.46733800  0.66866700  0.54480600  1
  C  C7  1  0.03266200  0.83133300  0.04480600  1
  C  C8  1  0.46733800  0.83133300  0.54480600  1
  C  C9  1  0.03266200  0.66866700  0.04480600  1
  C  C10  1  0.53266200  0.33133300  0.45519400  1
  C  C11  1  0.96733800  0.16866700  0.95519400  1
  Ni  Ni12  1  0.34530900  0.00011800  0.85599500  1
  Ni  Ni13  1  0.15469100  0.49988200  0.35599500  1
  Ni  Ni14  1  0.65469100  0.50011800  0.14400500  1
  Ni  Ni15  1  0.84530900  0.99988200  0.64400500  1
  Ni  Ni16  1  0.65469100  0.99988200  0.14400500  1
  Ni  Ni17  1  0.84530900  0.50011800  0.64400500  1
  Ni  Ni18  1  0.34530900  0.49988200  0.85599500  1
  Ni  Ni19  1  0.15469100  0.00011800  0.35599500  1
  C  C20  1  0.31768300  0.48864200  0.60672700  1
  C  C21  1  0.18231700  0.01135800  0.10672700  1
  C  C22  1  0.68231700  0.98864200  0.39327300  1
  C  C23  1  0.81768300  0.51135800  0.89327300  1
  C  C24  1  0.68231700  0.51135800  0.39327300  1
  C  C25  1  0.81768300  0.98864200  0.89327300  1
  C  C26  1  0.31768300  0.01135800  0.60672700  1
  C  C27  1  0.18231700  0.48864200  0.10672700  1
  C  C28  1  0.05768600  0.25000000  0.50685400  1
  C  C29  1  0.44231400  0.25000000  0.00685400  1
  C  C30  1  0.94231400  0.75000000  0.49314600  1
  C  C31  1  0.55768600  0.75000000  0.99314600  1
  C  C32  1  0.56991500  0.25000000  0.71542900  1
  C  C33  1  0.93008500  0.25000000  0.21542900  1
  C  C34  1  0.43008500  0.75000000  0.28457100  1
  C  C35  1  0.06991500  0.75000000  0.78457100  1
  C  C36  1  0.10269200  0.25000000  0.74753800  1
  C  C37  1  0.39730800  0.25000000  0.24753800  1
  C  C38  1  0.89730800  0.75000000  0.25246200  1
  C  C39  1  0.60269200  0.75000000  0.75246200  1
  Cu  Cu40  1  0.50362100  0.25000000  0.49272600  1
  Cu  Cu41  1  0.99637900  0.25000000  0.99272600  1
  Cu  Cu42  1  0.49637900  0.75000000  0.50727400  1
  Cu  Cu43  1  0.00362100  0.75000000  0.00727400  1
