# generated using pymatgen
data_Cu2NiC8
_symmetry_space_group_name_H-M   'P 1'
_cell_length_a   4.92584174
_cell_length_b   4.92584174
_cell_length_c   9.99703400
_cell_angle_alpha   90.00000000
_cell_angle_beta   90.00000000
_cell_angle_gamma   117.17789489
_symmetry_Int_Tables_number   1
_chemical_formula_structural   Cu2NiC8
_chemical_formula_sum   'Cu4 Ni2 C16'
_cell_volume   215.78600221
_cell_formula_units_Z   2
loop_
 _symmetry_equiv_pos_site_id
 _symmetry_equiv_pos_as_xyz
  1  'x, y, z'
loop_
 _atom_site_type_symbol
 _atom_site_label
 _atom_site_symmetry_multiplicity
 _atom_site_fract_x
 _atom_site_fract_y
 _atom_site_fract_z
 _atom_site_occupancy
  C  C0  1  0.63230300  0.13230300  0.75000000  1
  C  C1  1  0.86769700  0.36769700  0.25000000  1
  C  C2  1  0.13230300  0.63230300  0.75000000  1
  C  C3  1  0.36769700  0.86769700  0.25000000  1
  Ni  Ni4  1  0.00000000  0.00000000  0.00000000  1
  Ni  Ni5  1  0.50000000  0.50000000  0.50000000  1
  Cu  Cu6  1  0.83501400  0.16498600  0.50000000  1
  Cu  Cu7  1  0.66498600  0.33501400  0.00000000  1
  Cu  Cu8  1  0.33501400  0.66498600  0.00000000  1
  Cu  Cu9  1  0.16498600  0.83501400  0.50000000  1
  C  C10  1  0.69050100  0.03124800  0.10792800  1
  C  C11  1  0.30949900  0.96875200  0.89207200  1
  C  C12  1  0.53124800  0.19050100  0.39207200  1
  C  C13  1  0.80949900  0.46875200  0.60792800  1
  C  C14  1  0.16902800  0.16902800  0.59530100  1
  C  C15  1  0.33097200  0.33097200  0.09530100  1
  C  C16  1  0.66902800  0.66902800  0.90469900  1
  C  C17  1  0.96875200  0.30949900  0.89207200  1
  C  C18  1  0.83097200  0.83097200  0.40469900  1
  C  C19  1  0.19050100  0.53124800  0.39207200  1
  C  C20  1  0.46875200  0.80949900  0.60792800  1
  C  C21  1  0.03124800  0.69050100  0.10792800  1
