# generated using pymatgen
data_Cu3NiC10
_symmetry_space_group_name_H-M   'P 1'
_cell_length_a   9.39048338
_cell_length_b   9.39048338
_cell_length_c   9.91700649
_cell_angle_alpha   64.78643638
_cell_angle_beta   64.78643638
_cell_angle_gamma   67.29509301
_symmetry_Int_Tables_number   1
_chemical_formula_structural   Cu3NiC10
_chemical_formula_sum   'Cu12 Ni4 C40'
_cell_volume   693.09562471
_cell_formula_units_Z   4
loop_
 _symmetry_equiv_pos_site_id
 _symmetry_equiv_pos_as_xyz
  1  'x, y, z'
loop_
 _atom_site_type_symbol
 _atom_site_label
 _atom_site_symmetry_multiplicity
 _atom_site_fract_x
 _atom_site_fract_y
 _atom_site_fract_z
 _atom_site_occupancy
  C  C0  1  0.63979100  0.18042500  0.12526000  1
  C  C1  1  0.81957500  0.36020900  0.37474000  1
  C  C2  1  0.36020900  0.81957500  0.87474000  1
  C  C3  1  0.18042500  0.63979100  0.62526000  1
  C  C4  1  0.06009500  0.24406800  0.72805000  1
  C  C5  1  0.75593200  0.93990500  0.77195000  1
  C  C6  1  0.93990500  0.75593200  0.27195000  1
  C  C7  1  0.24406800  0.06009500  0.22805000  1
  Ni  Ni8  1  0.22952100  0.39441600  0.32282000  1
  Ni  Ni9  1  0.60558400  0.77047900  0.17718000  1
  Ni  Ni10  1  0.77047900  0.60558400  0.67718000  1
  Ni  Ni11  1  0.39441600  0.22952100  0.82282000  1
  Cu  Cu12  1  0.36804000  0.59941800  0.17898300  1
  Cu  Cu13  1  0.40058200  0.63196000  0.32101700  1
  Cu  Cu14  1  0.63196000  0.40058200  0.82101700  1
  Cu  Cu15  1  0.59941800  0.36804000  0.67898300  1
  Cu  Cu16  1  0.74950800  0.52152200  0.03574700  1
  Cu  Cu17  1  0.47847800  0.25049200  0.46425300  1
  Cu  Cu18  1  0.25049200  0.47847800  0.96425300  1
  Cu  Cu19  1  0.52152200  0.74950800  0.53574700  1
  Cu  Cu20  1  0.88824700  0.36136100  0.02747800  1
  Cu  Cu21  1  0.63863900  0.11175300  0.47252200  1
  Cu  Cu22  1  0.11175300  0.63863900  0.97252200  1
  Cu  Cu23  1  0.36136100  0.88824700  0.52747800  1
  C  C24  1  0.24366900  0.38742900  0.49161900  1
  C  C25  1  0.61257100  0.75633100  0.00838100  1
  C  C26  1  0.75633100  0.61257100  0.50838100  1
  C  C27  1  0.38742900  0.24366900  0.99161900  1
  C  C28  1  0.05170300  0.49151400  0.28011300  1
  C  C29  1  0.50848600  0.94829700  0.21988700  1
  C  C30  1  0.94829700  0.50848600  0.71988700  1
  C  C31  1  0.49151400  0.05170300  0.78011300  1
  C  C32  1  0.32072600  0.20943100  0.29239800  1
  C  C33  1  0.79056900  0.67927400  0.20760200  1
  C  C34  1  0.67927400  0.79056900  0.70760200  1
  C  C35  1  0.20943100  0.32072600  0.79239800  1
  C  C36  1  0.37830300  0.50065200  0.16234900  1
  C  C37  1  0.49934800  0.62169700  0.33765100  1
  C  C38  1  0.62169700  0.49934800  0.83765100  1
  C  C39  1  0.50065200  0.37830300  0.66234900  1
  C  C40  1  0.94610000  0.27972800  0.60737400  1
  C  C41  1  0.72027200  0.05390000  0.89262600  1
  C  C42  1  0.05390000  0.72027200  0.39262600  1
  C  C43  1  0.27972800  0.94610000  0.10737400  1
  C  C44  1  0.20823300  0.06029100  0.71349500  1
  C  C45  1  0.93970900  0.79176700  0.78650500  1
  C  C46  1  0.79176700  0.93970900  0.28650500  1
  C  C47  1  0.06029100  0.20823300  0.21349500  1
  C  C48  1  0.92598100  0.19221600  0.92123400  1
  C  C49  1  0.80778400  0.07401900  0.57876600  1
  C  C50  1  0.07401900  0.80778400  0.07876600  1
  C  C51  1  0.19221600  0.92598100  0.42123400  1
  C  C52  1  0.78598900  0.40806500  0.09741400  1
  C  C53  1  0.59193500  0.21401100  0.40258600  1
  C  C54  1  0.21401100  0.59193500  0.90258600  1
  C  C55  1  0.40806500  0.78598900  0.59741400  1
