# generated using pymatgen
data_CuNiC5
_symmetry_space_group_name_H-M   'P 1'
_cell_length_a   7.49943009
_cell_length_b   7.49943009
_cell_length_c   9.62240700
_cell_angle_alpha   90.00000000
_cell_angle_beta   90.00000000
_cell_angle_gamma   120.00000081
_symmetry_Int_Tables_number   1
_chemical_formula_structural   CuNiC5
_chemical_formula_sum   'Cu6 Ni6 C30'
_cell_volume   468.67401214
_cell_formula_units_Z   6
loop_
 _symmetry_equiv_pos_site_id
 _symmetry_equiv_pos_as_xyz
  1  'x, y, z'
loop_
 _atom_site_type_symbol
 _atom_site_label
 _atom_site_symmetry_multiplicity
 _atom_site_fract_x
 _atom_site_fract_y
 _atom_site_fract_z
 _atom_site_occupancy
  C  C0  1  0.20478000  0.94729000  0.25213600  1
  C  C1  1  0.05271000  0.25749000  0.25213600  1
  C  C2  1  0.25749000  0.05271000  0.75213600  1
  C  C3  1  0.74251000  0.79522000  0.25213600  1
  C  C4  1  0.79522000  0.74251000  0.75213600  1
  C  C5  1  0.94729000  0.20478000  0.75213600  1
  Ni  Ni6  1  0.05944500  0.60115700  0.47225400  1
  Ni  Ni7  1  0.54171200  0.94055500  0.47225400  1
  Ni  Ni8  1  0.39884300  0.45828800  0.47225400  1
  Ni  Ni9  1  0.45828800  0.39884300  0.97225400  1
  Ni  Ni10  1  0.60115700  0.05944500  0.97225400  1
  Ni  Ni11  1  0.94055500  0.54171200  0.97225400  1
  Cu  Cu12  1  0.33333300  0.66666700  0.16935800  1
  Cu  Cu13  1  0.00000000  0.00000000  0.00639800  1
  Cu  Cu14  1  0.00000000  0.00000000  0.50639800  1
  Cu  Cu15  1  0.33333300  0.66666700  0.77702100  1
  Cu  Cu16  1  0.66666700  0.33333300  0.66935800  1
  Cu  Cu17  1  0.66666700  0.33333300  0.27702100  1
  C  C18  1  0.10954000  0.87158500  0.44202900  1
  C  C19  1  0.13791600  0.68873900  0.11697400  1
  C  C20  1  0.40571300  0.90064500  0.82942700  1
  C  C21  1  0.09935500  0.50506900  0.82942700  1
  C  C22  1  0.31126100  0.44917700  0.11697400  1
  C  C23  1  0.33333300  0.66666700  0.34545900  1
  C  C24  1  0.00000000  0.00000000  0.17349100  1
  C  C25  1  0.00000000  0.00000000  0.67349100  1
  C  C26  1  0.33333300  0.66666700  0.59950200  1
  C  C27  1  0.12841500  0.23795500  0.44202900  1
  C  C28  1  0.55082300  0.86208400  0.11697400  1
  C  C29  1  0.23795500  0.12841500  0.94202900  1
  C  C30  1  0.49493100  0.59428700  0.82942700  1
  C  C31  1  0.76204500  0.89046000  0.44202900  1
  C  C32  1  0.44917700  0.31126100  0.61697400  1
  C  C33  1  0.50506900  0.09935500  0.32942700  1
  C  C34  1  0.59428700  0.49493100  0.32942700  1
  C  C35  1  0.86208400  0.55082300  0.61697400  1
  C  C36  1  0.66666700  0.33333300  0.84545900  1
  C  C37  1  0.66666700  0.33333300  0.09950200  1
  C  C38  1  0.89046000  0.76204500  0.94202900  1
  C  C39  1  0.68873900  0.13791600  0.61697400  1
  C  C40  1  0.90064500  0.40571300  0.32942700  1
  C  C41  1  0.87158500  0.10954000  0.94202900  1
