# generated using pymatgen
data_Cu3Ni3C13
_symmetry_space_group_name_H-M   'P 1'
_cell_length_a   9.75682426
_cell_length_b   9.75682426
_cell_length_c   9.75682364
_cell_angle_alpha   110.06279407
_cell_angle_beta   110.06279407
_cell_angle_gamma   110.06279410
_symmetry_Int_Tables_number   1
_chemical_formula_structural   Cu3Ni3C13
_chemical_formula_sum   'Cu6 Ni6 C26'
_cell_volume   698.89746300
_cell_formula_units_Z   2
loop_
 _symmetry_equiv_pos_site_id
 _symmetry_equiv_pos_as_xyz
  1  'x, y, z'
loop_
 _atom_site_type_symbol
 _atom_site_label
 _atom_site_symmetry_multiplicity
 _atom_site_fract_x
 _atom_site_fract_y
 _atom_site_fract_z
 _atom_site_occupancy
  C  C0  1  0.50460800  0.50460800  0.50460800  1
  C  C1  1  0.00460800  0.00460800  0.00460800  1
  Ni  Ni2  1  0.91709900  0.60237700  0.72269900  1
  Ni  Ni3  1  0.72269900  0.91709900  0.60237700  1
  Ni  Ni4  1  0.60237700  0.72269900  0.91709900  1
  Ni  Ni5  1  0.22269900  0.10237700  0.41709900  1
  Ni  Ni6  1  0.41709900  0.22269900  0.10237700  1
  Ni  Ni7  1  0.10237700  0.41709900  0.22269900  1
  Cu  Cu8  1  0.19105400  0.33605800  0.80349300  1
  Cu  Cu9  1  0.80349300  0.19105400  0.33605800  1
  Cu  Cu10  1  0.33605800  0.80349300  0.19105400  1
  Cu  Cu11  1  0.30349300  0.83605800  0.69105400  1
  Cu  Cu12  1  0.69105400  0.30349300  0.83605800  1
  Cu  Cu13  1  0.83605800  0.69105400  0.30349300  1
  C  C14  1  0.66805000  0.73236400  0.51868300  1
  C  C15  1  0.51868300  0.66805000  0.73236400  1
  C  C16  1  0.73236400  0.51868300  0.66805000  1
  C  C17  1  0.01868300  0.23236400  0.16805000  1
  C  C18  1  0.16805000  0.01868300  0.23236400  1
  C  C19  1  0.23236400  0.16805000  0.01868300  1
  C  C20  1  0.00998200  0.78336000  0.86512000  1
  C  C21  1  0.86512000  0.00998200  0.78336000  1
  C  C22  1  0.78336000  0.86512000  0.00998200  1
  C  C23  1  0.36512000  0.28336000  0.50998200  1
  C  C24  1  0.50998200  0.36512000  0.28336000  1
  C  C25  1  0.28336000  0.50998200  0.36512000  1
  C  C26  1  0.99171500  0.51030400  0.78033200  1
  C  C27  1  0.78033200  0.99171500  0.51030400  1
  C  C28  1  0.51030400  0.78033200  0.99171500  1
  C  C29  1  0.28033200  0.01030400  0.49171500  1
  C  C30  1  0.49171500  0.28033200  0.01030400  1
  C  C31  1  0.01030400  0.49171500  0.28033200  1
  C  C32  1  0.94313600  0.59400000  0.57956300  1
  C  C33  1  0.57956300  0.94313600  0.59400000  1
  C  C34  1  0.59400000  0.57956300  0.94313600  1
  C  C35  1  0.07956300  0.09400000  0.44313600  1
  C  C36  1  0.44313600  0.07956300  0.09400000  1
  C  C37  1  0.09400000  0.44313600  0.07956300  1
