# generated using pymatgen
data_Cu4Ni2C3
_symmetry_space_group_name_H-M   'P 1'
_cell_length_a   4.84016200
_cell_length_b   5.77259900
_cell_length_c   7.87639482
_cell_angle_alpha   85.07520088
_cell_angle_beta   90.00000000
_cell_angle_gamma   90.00000000
_symmetry_Int_Tables_number   1
_chemical_formula_structural   Cu4Ni2C3
_chemical_formula_sum   'Cu8 Ni4 C6'
_cell_volume   219.25650356
_cell_formula_units_Z   2
loop_
 _symmetry_equiv_pos_site_id
 _symmetry_equiv_pos_as_xyz
  1  'x, y, z'
loop_
 _atom_site_type_symbol
 _atom_site_label
 _atom_site_symmetry_multiplicity
 _atom_site_fract_x
 _atom_site_fract_y
 _atom_site_fract_z
 _atom_site_occupancy
  C  C0  1  0.50000000  0.50000000  0.00000000  1
  C  C1  1  0.45009100  0.83650700  0.67801000  1
  C  C2  1  0.54990900  0.16349300  0.32199000  1
  C  C3  1  0.00000000  0.00000000  0.00000000  1
  C  C4  1  0.95009100  0.66349300  0.32199000  1
  C  C5  1  0.04990900  0.33650700  0.67801000  1
  Ni  Ni6  1  0.80541000  0.95539900  0.23766500  1
  Ni  Ni7  1  0.69459000  0.45539900  0.23766500  1
  Ni  Ni8  1  0.30541000  0.54460100  0.76233500  1
  Ni  Ni9  1  0.19459000  0.04460100  0.76233500  1
  Cu  Cu10  1  0.80119400  0.30874600  0.88389600  1
  Cu  Cu11  1  0.81233700  0.62763200  0.56477800  1
  Cu  Cu12  1  0.68766300  0.12763200  0.56477800  1
  Cu  Cu13  1  0.69880600  0.80874600  0.88389600  1
  Cu  Cu14  1  0.30119400  0.19125400  0.11610400  1
  Cu  Cu15  1  0.31233700  0.87236800  0.43522200  1
  Cu  Cu16  1  0.18766300  0.37236800  0.43522200  1
  Cu  Cu17  1  0.19880600  0.69125400  0.11610400  1
