# generated using pymatgen
data_Cu9Ni11C27
_symmetry_space_group_name_H-M   'P 1'
_cell_length_a   9.84336000
_cell_length_b   10.33351600
_cell_length_c   17.37309000
_cell_angle_alpha   90.00000000
_cell_angle_beta   90.00000000
_cell_angle_gamma   90.00000000
_symmetry_Int_Tables_number   1
_chemical_formula_structural   Cu9Ni11C27
_chemical_formula_sum   'Cu36 Ni44 C108'
_cell_volume   1767.13022263
_cell_formula_units_Z   4
loop_
 _symmetry_equiv_pos_site_id
 _symmetry_equiv_pos_as_xyz
  1  'x, y, z'
loop_
 _atom_site_type_symbol
 _atom_site_label
 _atom_site_symmetry_multiplicity
 _atom_site_fract_x
 _atom_site_fract_y
 _atom_site_fract_z
 _atom_site_occupancy
  C  C0  1  0.52084700  0.75000000  0.00000000  1
  C  C1  1  0.97915300  0.25000000  0.50000000  1
  C  C2  1  0.47915300  0.25000000  0.00000000  1
  C  C3  1  0.02084700  0.75000000  0.50000000  1
  C  C4  1  0.93360700  0.92926700  0.17407800  1
  C  C5  1  0.56639300  0.42926700  0.32592200  1
  C  C6  1  0.56639300  0.07073300  0.67407800  1
  C  C7  1  0.93360700  0.57073300  0.82592200  1
  C  C8  1  0.06639300  0.07073300  0.82592200  1
  C  C9  1  0.43360700  0.57073300  0.67407800  1
  C  C10  1  0.43360700  0.92926700  0.32592200  1
  C  C11  1  0.06639300  0.42926700  0.17407800  1
  Ni  Ni12  1  0.87675500  0.75000000  0.00000000  1
  Ni  Ni13  1  0.62324500  0.25000000  0.50000000  1
  Ni  Ni14  1  0.12324500  0.25000000  0.00000000  1
  Ni  Ni15  1  0.37675500  0.75000000  0.50000000  1
  Ni  Ni16  1  0.84065600  0.55612700  0.09467300  1
  Ni  Ni17  1  0.65934400  0.05612700  0.40532700  1
  Ni  Ni18  1  0.65934400  0.44387300  0.59467300  1
  Ni  Ni19  1  0.84065600  0.94387300  0.90532700  1
  Ni  Ni20  1  0.15934400  0.44387300  0.90532700  1
  Ni  Ni21  1  0.34065600  0.94387300  0.59467300  1
  Ni  Ni22  1  0.34065600  0.55612700  0.40532700  1
  Ni  Ni23  1  0.15934400  0.05612700  0.09467300  1
  Ni  Ni24  1  0.04494200  0.71736600  0.10267500  1
  Ni  Ni25  1  0.45505800  0.21736600  0.39732500  1
  Ni  Ni26  1  0.45505800  0.28263400  0.60267500  1
  Ni  Ni27  1  0.04494200  0.78263400  0.89732500  1
  Ni  Ni28  1  0.95505800  0.28263400  0.89732500  1
  Ni  Ni29  1  0.54494200  0.78263400  0.60267500  1
  Ni  Ni30  1  0.54494200  0.71736600  0.39732500  1
  Ni  Ni31  1  0.95505800  0.21736600  0.10267500  1
  Ni  Ni32  1  0.28840300  0.64882300  0.09978100  1
  Ni  Ni33  1  0.21159700  0.14882300  0.40021900  1
  Ni  Ni34  1  0.21159700  0.35117700  0.59978100  1
  Ni  Ni35  1  0.28840300  0.85117700  0.90021900  1
  Ni  Ni36  1  0.71159700  0.35117700  0.90021900  1
  Ni  Ni37  1  0.78840300  0.85117700  0.59978100  1
  Ni  Ni38  1  0.78840300  0.64882300  0.40021900  1
  Ni  Ni39  1  0.71159700  0.14882300  0.09978100  1
  Ni  Ni40  1  0.22707000  0.84289100  0.17108300  1
  Ni  Ni41  1  0.27293000  0.34289100  0.32891700  1
  Ni  Ni42  1  0.27293000  0.15710900  0.67108300  1
  Ni  Ni43  1  0.22707000  0.65710900  0.82891700  1
  Ni  Ni44  1  0.77293000  0.15710900  0.82891700  1
  Ni  Ni45  1  0.72707000  0.65710900  0.67108300  1
  Ni  Ni46  1  0.72707000  0.84289100  0.32891700  1
  Ni  Ni47  1  0.77293000  0.34289100  0.17108300  1
  Ni  Ni48  1  0.67771500  0.96739200  0.20295200  1
  Ni  Ni49  1  0.82228500  0.46739200  0.29704800  1
  Ni  Ni50  1  0.82228500  0.03260800  0.70295200  1
  Ni  Ni51  1  0.67771500  0.53260800  0.79704800  1
  Ni  Ni52  1  0.32228500  0.03260800  0.79704800  1
  Ni  Ni53  1  0.17771500  0.53260800  0.70295200  1
  Ni  Ni54  1  0.17771500  0.96739200  0.29704800  1
  Ni  Ni55  1  0.32228500  0.46739200  0.20295200  1
  Cu  Cu56  1  0.51535200  0.50186700  0.17064300  1
  Cu  Cu57  1  0.98464800  0.00186700  0.32935700  1
  Cu  Cu58  1  0.98464800  0.49813300  0.67064300  1
  Cu  Cu59  1  0.51535200  0.99813300  0.82935700  1
  Cu  Cu60  1  0.48464800  0.49813300  0.82935700  1
  Cu  Cu61  1  0.01535200  0.99813300  0.67064300  1
  Cu  Cu62  1  0.01535200  0.50186700  0.32935700  1
  Cu  Cu63  1  0.48464800  0.00186700  0.17064300  1
  Cu  Cu64  1  0.17153200  0.75000000  0.00000000  1
  Cu  Cu65  1  0.32846800  0.25000000  0.50000000  1
  Cu  Cu66  1  0.82846800  0.25000000  0.00000000  1
  Cu  Cu67  1  0.67153200  0.75000000  0.50000000  1
  Cu  Cu68  1  0.37112000  0.53655100  0.01776400  1
  Cu  Cu69  1  0.12888000  0.03655100  0.48223600  1
  Cu  Cu70  1  0.12888000  0.46344900  0.51776400  1
  Cu  Cu71  1  0.37112000  0.96344900  0.98223600  1
  Cu  Cu72  1  0.62888000  0.46344900  0.98223600  1
  Cu  Cu73  1  0.87112000  0.96344900  0.51776400  1
  Cu  Cu74  1  0.87112000  0.53655100  0.48223600  1
  Cu  Cu75  1  0.62888000  0.03655100  0.01776400  1
  Cu  Cu76  1  0.68014700  0.16660200  0.26611900  1
  Cu  Cu77  1  0.81985300  0.66660200  0.23388100  1
  Cu  Cu78  1  0.81985300  0.83339800  0.76611900  1
  Cu  Cu79  1  0.68014700  0.33339800  0.73388100  1
  Cu  Cu80  1  0.31985300  0.83339800  0.73388100  1
  Cu  Cu81  1  0.18014700  0.33339800  0.76611900  1
  Cu  Cu82  1  0.18014700  0.16660200  0.23388100  1
  Cu  Cu83  1  0.31985300  0.66660200  0.26611900  1
  Cu  Cu84  1  0.26298800  0.63974700  0.28997700  1
  Cu  Cu85  1  0.23701200  0.13974700  0.21002300  1
  Cu  Cu86  1  0.23701200  0.36025300  0.78997700  1
  Cu  Cu87  1  0.26298800  0.86025300  0.71002300  1
  Cu  Cu88  1  0.73701200  0.36025300  0.71002300  1
  Cu  Cu89  1  0.76298800  0.86025300  0.78997700  1
  Cu  Cu90  1  0.76298800  0.63974700  0.21002300  1
  Cu  Cu91  1  0.73701200  0.13974700  0.28997700  1
  C  C92  1  0.94859500  0.80318700  0.06326900  1
  C  C93  1  0.55140500  0.30318700  0.43673100  1
  C  C94  1  0.55140500  0.19681300  0.56326900  1
  C  C95  1  0.94859500  0.69681300  0.93673100  1
  C  C96  1  0.05140500  0.19681300  0.93673100  1
  C  C97  1  0.44859500  0.69681300  0.56326900  1
  C  C98  1  0.44859500  0.80318700  0.43673100  1
  C  C99  1  0.05140500  0.30318700  0.06326900  1
  C  C100  1  0.78415100  0.64841700  0.03809200  1
  C  C101  1  0.71584900  0.14841700  0.46190800  1
  C  C102  1  0.71584900  0.35158300  0.53809200  1
  C  C103  1  0.78415100  0.85158300  0.96190800  1
  C  C104  1  0.21584900  0.35158300  0.96190800  1
  C  C105  1  0.28415100  0.85158300  0.53809200  1
  C  C106  1  0.28415100  0.64841700  0.46190800  1
  C  C107  1  0.21584900  0.14841700  0.03809200  1
  C  C108  1  0.76295600  0.45852700  0.11582600  1
  C  C109  1  0.73704400  0.95852700  0.38417400  1
  C  C110  1  0.73704400  0.54147300  0.61582600  1
  C  C111  1  0.76295600  0.04147300  0.88417400  1
  C  C112  1  0.23704400  0.54147300  0.88417400  1
  C  C113  1  0.26295600  0.04147300  0.61582600  1
  C  C114  1  0.26295600  0.45852700  0.38417400  1
  C  C115  1  0.23704400  0.95852700  0.11582600  1
  C  C116  1  0.96912400  0.58716100  0.12008200  1
  C  C117  1  0.53087600  0.08716100  0.37991800  1
  C  C118  1  0.53087600  0.41283900  0.62008200  1
  C  C119  1  0.96912400  0.91283900  0.87991800  1
  C  C120  1  0.03087600  0.41283900  0.87991800  1
  C  C121  1  0.46912400  0.91283900  0.62008200  1
  C  C122  1  0.46912400  0.58716100  0.37991800  1
  C  C123  1  0.03087600  0.08716100  0.12008200  1
  C  C124  1  0.08510300  0.78880900  0.17169600  1
  C  C125  1  0.41489700  0.28880900  0.32830400  1
  C  C126  1  0.41489700  0.21119100  0.67169600  1
  C  C127  1  0.08510300  0.71119100  0.82830400  1
  C  C128  1  0.91489700  0.21119100  0.82830400  1
  C  C129  1  0.58510300  0.71119100  0.67169600  1
  C  C130  1  0.58510300  0.78880900  0.32830400  1
  C  C131  1  0.91489700  0.28880900  0.17169600  1
  C  C132  1  0.16164300  0.68069400  0.05576800  1
  C  C133  1  0.33835700  0.18069400  0.44423200  1
  C  C134  1  0.33835700  0.31930600  0.55576800  1
  C  C135  1  0.16164300  0.81930600  0.94423200  1
  C  C136  1  0.83835700  0.31930600  0.94423200  1
  C  C137  1  0.66164300  0.81930600  0.55576800  1
  C  C138  1  0.66164300  0.68069400  0.44423200  1
  C  C139  1  0.83835700  0.18069400  0.05576800  1
  C  C140  1  0.39702400  0.61944400  0.04543200  1
  C  C141  1  0.10297600  0.11944400  0.45456800  1
  C  C142  1  0.10297600  0.38055600  0.54543200  1
  C  C143  1  0.39702400  0.88055600  0.95456800  1
  C  C144  1  0.60297600  0.38055600  0.95456800  1
  C  C145  1  0.89702400  0.88055600  0.54543200  1
  C  C146  1  0.89702400  0.61944400  0.45456800  1
  C  C147  1  0.60297600  0.11944400  0.04543200  1
  C  C148  1  0.25086900  0.52591900  0.14533100  1
  C  C149  1  0.24913100  0.02591900  0.35466900  1
  C  C150  1  0.24913100  0.47408100  0.64533100  1
  C  C151  1  0.25086900  0.97408100  0.85466900  1
  C  C152  1  0.74913100  0.47408100  0.85466900  1
  C  C153  1  0.75086900  0.97408100  0.64533100  1
  C  C154  1  0.75086900  0.52591900  0.35466900  1
  C  C155  1  0.74913100  0.02591900  0.14533100  1
  C  C156  1  0.32804500  0.75168500  0.14925300  1
  C  C157  1  0.17195500  0.25168500  0.35074700  1
  C  C158  1  0.17195500  0.24831500  0.64925300  1
  C  C159  1  0.32804500  0.74831500  0.85074700  1
  C  C160  1  0.67195500  0.24831500  0.85074700  1
  C  C161  1  0.82804500  0.74831500  0.64925300  1
  C  C162  1  0.82804500  0.75168500  0.35074700  1
  C  C163  1  0.67195500  0.25168500  0.14925300  1
  C  C164  1  0.25995200  0.89577700  0.24972600  1
  C  C165  1  0.24004800  0.39577700  0.25027400  1
  C  C166  1  0.24004800  0.10422300  0.74972600  1
  C  C167  1  0.25995200  0.60422300  0.75027400  1
  C  C168  1  0.74004800  0.10422300  0.75027400  1
  C  C169  1  0.75995200  0.60422300  0.74972600  1
  C  C170  1  0.75995200  0.89577700  0.25027400  1
  C  C171  1  0.74004800  0.39577700  0.24972600  1
  C  C172  1  0.03710900  0.97031800  0.28586100  1
  C  C173  1  0.46289100  0.47031800  0.21413900  1
  C  C174  1  0.46289100  0.02968200  0.78586100  1
  C  C175  1  0.03710900  0.52968200  0.71413900  1
  C  C176  1  0.96289100  0.02968200  0.71413900  1
  C  C177  1  0.53710900  0.52968200  0.78586100  1
  C  C178  1  0.53710900  0.97031800  0.21413900  1
  C  C179  1  0.96289100  0.47031800  0.28586100  1
  C  C180  1  0.16418400  0.88922300  0.49335300  1
  C  C181  1  0.33581600  0.38922300  0.00664700  1
  C  C182  1  0.33581600  0.11077700  0.99335300  1
  C  C183  1  0.16418400  0.61077700  0.50664700  1
  C  C184  1  0.83581600  0.11077700  0.50664700  1
  C  C185  1  0.66418400  0.61077700  0.99335300  1
  C  C186  1  0.66418400  0.88922300  0.00664700  1
  C  C187  1  0.83581600  0.38922300  0.49335300  1
