# generated using pymatgen
data_CuNiC24
_symmetry_space_group_name_H-M   'P 1'
_cell_length_a   9.50141800
_cell_length_b   6.63070300
_cell_length_c   8.45837705
_cell_angle_alpha   79.40575350
_cell_angle_beta   90.00000000
_cell_angle_gamma   90.00000000
_symmetry_Int_Tables_number   1
_chemical_formula_structural   CuNiC24
_chemical_formula_sum   'Cu2 Ni2 C48'
_cell_volume   523.80320829
_cell_formula_units_Z   2
loop_
 _symmetry_equiv_pos_site_id
 _symmetry_equiv_pos_as_xyz
  1  'x, y, z'
loop_
 _atom_site_type_symbol
 _atom_site_label
 _atom_site_symmetry_multiplicity
 _atom_site_fract_x
 _atom_site_fract_y
 _atom_site_fract_z
 _atom_site_occupancy
  Ni  Ni0  1  0.50000000  0.00000000  0.50000000  1
  Ni  Ni1  1  0.00000000  0.00000000  0.00000000  1
  Cu  Cu2  1  0.00000000  0.50000000  0.50000000  1
  Cu  Cu3  1  0.50000000  0.50000000  0.00000000  1
  C  C4  1  0.43593400  0.95708700  0.81972100  1
  C  C5  1  0.06406600  0.95708700  0.31972100  1
  C  C6  1  0.97618200  0.80784500  0.73967000  1
  C  C7  1  0.67151400  0.75351800  0.70484100  1
  C  C8  1  0.52381800  0.80784500  0.23967000  1
  C  C9  1  0.73204000  0.74908100  0.53090200  1
  C  C10  1  0.27591900  0.73386000  0.52193100  1
  C  C11  1  0.82848600  0.75351800  0.20484100  1
  C  C12  1  0.39697200  0.63065800  0.63877700  1
  C  C13  1  0.76796000  0.74908100  0.03090200  1
  C  C14  1  0.22408100  0.73386000  0.02193100  1
  C  C15  1  0.10302800  0.63065800  0.13877700  1
  C  C16  1  0.89697200  0.36934200  0.86122300  1
  C  C17  1  0.77591900  0.26614000  0.97806900  1
  C  C18  1  0.23204000  0.25091900  0.96909800  1
  C  C19  1  0.60302800  0.36934200  0.36122300  1
  C  C20  1  0.17151400  0.24648200  0.79515900  1
  C  C21  1  0.72408100  0.26614000  0.47806900  1
  C  C22  1  0.26796000  0.25091900  0.46909800  1
  C  C23  1  0.47618200  0.19215500  0.76033000  1
  C  C24  1  0.32848600  0.24648200  0.29515900  1
  C  C25  1  0.02381800  0.19215500  0.26033000  1
  C  C26  1  0.93593400  0.04291300  0.68027900  1
  C  C27  1  0.56406600  0.04291300  0.18027900  1
  C  C28  1  0.96145100  0.93913300  0.77416100  1
  C  C29  1  0.53854900  0.93913300  0.27416100  1
  C  C30  1  0.67139400  0.82593200  0.59283600  1
  C  C31  1  0.37635400  0.74029200  0.54653100  1
  C  C32  1  0.82860600  0.82593200  0.09283600  1
  C  C33  1  0.12364600  0.74029200  0.04653100  1
  C  C34  1  0.87635400  0.25970800  0.95346900  1
  C  C35  1  0.17139400  0.17406800  0.90716400  1
  C  C36  1  0.62364600  0.25970800  0.45346900  1
  C  C37  1  0.32860600  0.17406800  0.40716400  1
  C  C38  1  0.46145100  0.06086700  0.72583900  1
  C  C39  1  0.03854900  0.06086700  0.22583900  1
  C  C40  1  0.40719300  0.72757300  0.96779100  1
  C  C41  1  0.09280700  0.72757300  0.46779100  1
  C  C42  1  0.64720000  0.62549500  0.91150000  1
  C  C43  1  0.85280000  0.62549500  0.41150000  1
  C  C44  1  0.94601400  0.54733600  0.68391400  1
  C  C45  1  0.44601400  0.45266400  0.81608600  1
  C  C46  1  0.55398600  0.54733600  0.18391400  1
  C  C47  1  0.05398600  0.45266400  0.31608600  1
  C  C48  1  0.14720000  0.37450500  0.58850000  1
  C  C49  1  0.35280000  0.37450500  0.08850000  1
  C  C50  1  0.90719300  0.27242700  0.53220900  1
  C  C51  1  0.59280700  0.27242700  0.03220900  1
