# generated using pymatgen
data_Cu2Ni4C21
_symmetry_space_group_name_H-M   'P 1'
_cell_length_a   9.83845420
_cell_length_b   9.74520954
_cell_length_c   9.46974812
_cell_angle_alpha   61.57727004
_cell_angle_beta   60.58959802
_cell_angle_gamma   57.83313193
_symmetry_Int_Tables_number   1
_chemical_formula_structural   Cu2Ni4C21
_chemical_formula_sum   'Cu4 Ni8 C42'
_cell_volume   640.55951730
_cell_formula_units_Z   2
loop_
 _symmetry_equiv_pos_site_id
 _symmetry_equiv_pos_as_xyz
  1  'x, y, z'
loop_
 _atom_site_type_symbol
 _atom_site_label
 _atom_site_symmetry_multiplicity
 _atom_site_fract_x
 _atom_site_fract_y
 _atom_site_fract_z
 _atom_site_occupancy
  C  C0  1  0.94981600  0.55018400  0.94981600  1
  C  C1  1  0.95163800  0.54836200  0.54836200  1
  C  C2  1  0.70163800  0.29836200  0.29836200  1
  C  C3  1  0.69981600  0.30018400  0.69981600  1
  C  C4  1  0.55018400  0.94981600  0.55018400  1
  C  C5  1  0.54836200  0.95163800  0.95163800  1
  C  C6  1  0.29836200  0.70163800  0.70163800  1
  C  C7  1  0.30018400  0.69981600  0.30018400  1
  Ni  Ni8  1  0.89657500  0.27258400  0.91889600  1
  Ni  Ni9  1  0.97741600  0.35342500  0.33805600  1
  Ni  Ni10  1  0.91889600  0.91194400  0.89657500  1
  Ni  Ni11  1  0.91194400  0.91889600  0.27258400  1
  Ni  Ni12  1  0.33805600  0.33110400  0.97741600  1
  Ni  Ni13  1  0.33110400  0.33805600  0.35342500  1
  Ni  Ni14  1  0.27258400  0.89657500  0.91194400  1
  Ni  Ni15  1  0.35342500  0.97741600  0.33110400  1
  Cu  Cu16  1  0.12500000  0.62500000  0.12500000  1
  Cu  Cu17  1  0.62500000  0.12500000  0.12500000  1
  Cu  Cu18  1  0.12500000  0.12500000  0.12500000  1
  Cu  Cu19  1  0.12500000  0.12500000  0.62500000  1
  C  C20  1  0.50000000  0.50000000  0.50000000  1
  C  C21  1  0.75000000  0.75000000  0.75000000  1
  C  C22  1  0.02634400  0.27548700  0.93626500  1
  C  C23  1  0.55753200  0.55533800  0.30995900  1
  C  C24  1  0.75143300  0.26673400  0.05281800  1
  C  C25  1  0.98326600  0.49856700  0.32098500  1
  C  C26  1  0.05281800  0.92901500  0.75143300  1
  C  C27  1  0.97299800  0.33396600  0.20452000  1
  C  C28  1  0.30995900  0.57717100  0.55753200  1
  C  C29  1  0.55533800  0.55753200  0.57717100  1
  C  C30  1  0.48851600  0.20452000  0.33396600  1
  C  C31  1  0.92901500  0.05281800  0.26673400  1
  C  C32  1  0.97451300  0.22365600  0.48809600  1
  C  C33  1  0.57717100  0.30995900  0.55533800  1
  C  C34  1  0.93626500  0.76190400  0.02634400  1
  C  C35  1  0.76190400  0.93626500  0.27548700  1
  C  C36  1  0.91603400  0.27700200  0.76148400  1
  C  C37  1  0.20452000  0.48851600  0.97299800  1
  C  C38  1  0.04548000  0.76148400  0.27700200  1
  C  C39  1  0.33396600  0.97299800  0.48851600  1
  C  C40  1  0.48809600  0.31373500  0.97451300  1
  C  C41  1  0.31373500  0.48809600  0.22365600  1
  C  C42  1  0.67282900  0.94004100  0.69466200  1
  C  C43  1  0.27548700  0.02634400  0.76190400  1
  C  C44  1  0.32098500  0.19718200  0.98326600  1
  C  C45  1  0.76148400  0.04548000  0.91603400  1
  C  C46  1  0.69466200  0.69246800  0.67282900  1
  C  C47  1  0.94004100  0.67282900  0.69246800  1
  C  C48  1  0.27700200  0.91603400  0.04548000  1
  C  C49  1  0.19718200  0.32098500  0.49856700  1
  C  C50  1  0.26673400  0.75143300  0.92901500  1
  C  C51  1  0.49856700  0.98326600  0.19718200  1
  C  C52  1  0.69246800  0.69466200  0.94004100  1
  C  C53  1  0.22365600  0.97451300  0.31373500  1
