# generated using pymatgen
data_CuNiC10
_symmetry_space_group_name_H-M   'P 1'
_cell_length_a   3.16191500
_cell_length_b   8.26431600
_cell_length_c   14.31362748
_cell_angle_alpha   89.98522936
_cell_angle_beta   90.00000000
_cell_angle_gamma   90.00000000
_symmetry_Int_Tables_number   1
_chemical_formula_structural   CuNiC10
_chemical_formula_sum   'Cu3 Ni3 C30'
_cell_volume   374.03031359
_cell_formula_units_Z   3
loop_
 _symmetry_equiv_pos_site_id
 _symmetry_equiv_pos_as_xyz
  1  'x, y, z'
loop_
 _atom_site_type_symbol
 _atom_site_label
 _atom_site_symmetry_multiplicity
 _atom_site_fract_x
 _atom_site_fract_y
 _atom_site_fract_z
 _atom_site_occupancy
  C  C0  1  0.50000000  0.70743900  0.01051300  1
  C  C1  1  0.50000000  0.65801600  0.64201900  1
  C  C2  1  0.50000000  0.63268900  0.34809100  1
  C  C3  1  0.50000000  0.20704700  0.50655400  1
  C  C4  1  0.50000000  0.16013100  0.14228100  1
  C  C5  1  0.50000000  0.13453400  0.85050300  1
  Ni  Ni6  1  0.00000000  0.86583500  0.49363200  1
  Ni  Ni7  1  0.00000000  0.80802200  0.82016000  1
  Ni  Ni8  1  0.00000000  0.32566300  0.68591400  1
  Cu  Cu9  1  0.00000000  0.82426600  0.18369800  1
  Cu  Cu10  1  0.00000000  0.36355300  0.99660100  1
  Cu  Cu11  1  0.00000000  0.31307900  0.32005800  1
  C  C12  1  0.50000000  0.00034800  0.33139500  1
  C  C13  1  0.00000000  0.00195800  0.00055800  1
  C  C14  1  0.50000000  0.99980200  0.66667400  1
  C  C15  1  0.50000000  0.49968500  0.83538800  1
  C  C16  1  0.00000000  0.49812000  0.49951400  1
  C  C17  1  0.50000000  0.50003500  0.16646900  1
  C  C18  1  0.50000000  0.99101100  0.56969100  1
  C  C19  1  0.50000000  0.98202700  0.23466300  1
  C  C20  1  0.50000000  0.86314400  0.38828700  1
  C  C21  1  0.50000000  0.85868100  0.71948100  1
  C  C22  1  0.00000000  0.84934100  0.04242200  1
  C  C23  1  0.50000000  0.65278800  0.87603700  1
  C  C24  1  0.50000000  0.65239100  0.20829800  1
  C  C25  1  0.00000000  0.63534000  0.55619000  1
  C  C26  1  0.00000000  0.51392600  0.40238200  1
  C  C27  1  0.50000000  0.48705000  0.06955900  1
  C  C28  1  0.50000000  0.48541000  0.73819700  1
  C  C29  1  0.50000000  0.36227300  0.89159300  1
  C  C30  1  0.50000000  0.36119100  0.22166300  1
  C  C31  1  0.00000000  0.34465900  0.53954000  1
  C  C32  1  0.50000000  0.15427300  0.37131200  1
  C  C33  1  0.50000000  0.14938500  0.71089600  1
  C  C34  1  0.00000000  0.14045200  0.05601400  1
  C  C35  1  0.00000000  0.01643800  0.90375200  1
