# generated using pymatgen
data_Cu19(NiC)2
_symmetry_space_group_name_H-M   'P 1'
_cell_length_a   8.93379583
_cell_length_b   8.93379583
_cell_length_c   11.81502033
_cell_angle_alpha   74.05731041
_cell_angle_beta   74.05731041
_cell_angle_gamma   71.76421899
_symmetry_Int_Tables_number   1
_chemical_formula_structural   Cu19(NiC)2
_chemical_formula_sum   'Cu38 Ni4 C4'
_cell_volume   842.59163395
_cell_formula_units_Z   2
loop_
 _symmetry_equiv_pos_site_id
 _symmetry_equiv_pos_as_xyz
  1  'x, y, z'
loop_
 _atom_site_type_symbol
 _atom_site_label
 _atom_site_symmetry_multiplicity
 _atom_site_fract_x
 _atom_site_fract_y
 _atom_site_fract_z
 _atom_site_occupancy
  C  C0  1  0.18861800  0.13665400  0.28294700  1
  C  C1  1  0.86334600  0.81138200  0.21705300  1
  C  C2  1  0.81138200  0.86334600  0.71705300  1
  C  C3  1  0.13665400  0.18861800  0.78294700  1
  Ni  Ni4  1  0.24737600  0.91380000  0.05898000  1
  Ni  Ni5  1  0.08620000  0.75262400  0.44102000  1
  Ni  Ni6  1  0.75262400  0.08620000  0.94102000  1
  Ni  Ni7  1  0.91380000  0.24737600  0.55898000  1
  Cu  Cu8  1  0.34366700  0.75840700  0.03695600  1
  Cu  Cu9  1  0.24159300  0.65633300  0.46304400  1
  Cu  Cu10  1  0.65633300  0.24159300  0.96304400  1
  Cu  Cu11  1  0.75840700  0.34366700  0.53695600  1
  Cu  Cu12  1  0.30546500  0.96668500  0.14702600  1
  Cu  Cu13  1  0.03331500  0.69453500  0.35297400  1
  Cu  Cu14  1  0.69453500  0.03331500  0.85297400  1
  Cu  Cu15  1  0.96668500  0.30546500  0.64702600  1
  Cu  Cu16  1  0.08413800  0.92794600  0.38893400  1
  Cu  Cu17  1  0.07205400  0.91586200  0.11106600  1
  Cu  Cu18  1  0.91586200  0.07205400  0.61106600  1
  Cu  Cu19  1  0.92794600  0.08413800  0.88893400  1
  Cu  Cu20  1  0.04512300  0.24925100  0.44737400  1
  Cu  Cu21  1  0.75074900  0.95487700  0.05262600  1
  Cu  Cu22  1  0.95487700  0.75074900  0.55262600  1
  Cu  Cu23  1  0.24925100  0.04512300  0.94737400  1
  Cu  Cu24  1  0.31144300  0.40128100  0.09387400  1
  Cu  Cu25  1  0.59871900  0.68855700  0.40612600  1
  Cu  Cu26  1  0.68855700  0.59871900  0.90612600  1
  Cu  Cu27  1  0.40128100  0.31144300  0.59387400  1
  Cu  Cu28  1  0.58257200  0.32576900  0.34595500  1
  Cu  Cu29  1  0.67423100  0.41742800  0.15404500  1
  Cu  Cu30  1  0.41742800  0.67423100  0.65404500  1
  Cu  Cu31  1  0.32576900  0.58257200  0.84595500  1
  Cu  Cu32  1  0.29413200  0.42438700  0.19544000  1
  Cu  Cu33  1  0.57561300  0.70586800  0.30456000  1
  Cu  Cu34  1  0.70586800  0.57561300  0.80456000  1
  Cu  Cu35  1  0.42438700  0.29413200  0.69544000  1
  Cu  Cu36  1  0.56558200  0.43441800  0.25000000  1
  Cu  Cu37  1  0.43441800  0.56558200  0.75000000  1
  Cu  Cu38  1  0.02726700  0.23185200  0.20497000  1
  Cu  Cu39  1  0.76814800  0.97273300  0.29503000  1
  Cu  Cu40  1  0.97273300  0.76814800  0.79503000  1
  Cu  Cu41  1  0.23185200  0.02726700  0.70497000  1
  Cu  Cu42  1  0.37056300  0.06689000  0.33990100  1
  Cu  Cu43  1  0.93311000  0.62943700  0.16009900  1
  Cu  Cu44  1  0.62943700  0.93311000  0.66009900  1
  Cu  Cu45  1  0.06689000  0.37056300  0.83990100  1
