# generated using pymatgen
data_Cu7NiC3
_symmetry_space_group_name_H-M   'P 1'
_cell_length_a   5.79677200
_cell_length_b   12.21865100
_cell_length_c   13.35788300
_cell_angle_alpha   90.00000000
_cell_angle_beta   90.00000000
_cell_angle_gamma   90.00000000
_symmetry_Int_Tables_number   1
_chemical_formula_structural   Cu7NiC3
_chemical_formula_sum   'Cu28 Ni4 C12'
_cell_volume   946.12194174
_cell_formula_units_Z   4
loop_
 _symmetry_equiv_pos_site_id
 _symmetry_equiv_pos_as_xyz
  1  'x, y, z'
loop_
 _atom_site_type_symbol
 _atom_site_label
 _atom_site_symmetry_multiplicity
 _atom_site_fract_x
 _atom_site_fract_y
 _atom_site_fract_z
 _atom_site_occupancy
  C  C0  1  0.93654200  0.99378100  0.81127600  1
  C  C1  1  0.06345800  0.49378100  0.18872400  1
  C  C2  1  0.93654200  0.49378100  0.68872400  1
  C  C3  1  0.06345800  0.99378100  0.31127600  1
  C  C4  1  0.43712800  0.85300300  0.88619100  1
  C  C5  1  0.56287200  0.35300300  0.11380900  1
  C  C6  1  0.43712800  0.35300300  0.61380900  1
  C  C7  1  0.56287200  0.85300300  0.38619100  1
  C  C8  1  0.93984500  0.75182100  0.99964100  1
  C  C9  1  0.06015500  0.25182100  0.00035900  1
  C  C10  1  0.93984500  0.25182100  0.50035900  1
  C  C11  1  0.06015500  0.75182100  0.49964100  1
  Ni  Ni12  1  0.74590200  0.48224100  0.92880600  1
  Ni  Ni13  1  0.25409800  0.98224100  0.07119400  1
  Ni  Ni14  1  0.74590200  0.98224100  0.57119400  1
  Ni  Ni15  1  0.25409800  0.48224100  0.42880600  1
  Cu  Cu16  1  0.26848000  0.93915100  0.78801100  1
  Cu  Cu17  1  0.73152000  0.43915100  0.21198900  1
  Cu  Cu18  1  0.26848000  0.43915100  0.71198900  1
  Cu  Cu19  1  0.73152000  0.93915100  0.28801100  1
  Cu  Cu20  1  0.25895600  0.72955500  0.93558100  1
  Cu  Cu21  1  0.74104400  0.22955500  0.06441900  1
  Cu  Cu22  1  0.25895600  0.22955500  0.56441900  1
  Cu  Cu23  1  0.74104400  0.72955500  0.43558100  1
  Cu  Cu24  1  0.77718700  0.83942400  0.87014700  1
  Cu  Cu25  1  0.22281300  0.33942400  0.12985300  1
  Cu  Cu26  1  0.77718700  0.33942400  0.62985300  1
  Cu  Cu27  1  0.22281300  0.83942400  0.37014700  1
  Cu  Cu28  1  0.76475500  0.41489400  0.83631000  1
  Cu  Cu29  1  0.23524500  0.91489400  0.16369000  1
  Cu  Cu30  1  0.76475500  0.91489400  0.66369000  1
  Cu  Cu31  1  0.23524500  0.41489400  0.33631000  1
  Cu  Cu32  1  0.52280700  0.45199000  0.98276100  1
  Cu  Cu33  1  0.47719300  0.95199000  0.01723900  1
  Cu  Cu34  1  0.52280700  0.95199000  0.51723900  1
  Cu  Cu35  1  0.47719300  0.45199000  0.48276100  1
  Cu  Cu36  1  0.93872900  0.45173300  0.99871800  1
  Cu  Cu37  1  0.06127100  0.95173300  0.00128200  1
  Cu  Cu38  1  0.93872900  0.95173300  0.50128200  1
  Cu  Cu39  1  0.06127100  0.45173300  0.49871800  1
  Cu  Cu40  1  0.74886500  0.59930800  0.90542800  1
  Cu  Cu41  1  0.25113500  0.09930800  0.09457200  1
  Cu  Cu42  1  0.74886500  0.09930800  0.59457200  1
  Cu  Cu43  1  0.25113500  0.59930800  0.40542800  1
