# generated using pymatgen
data_Cu(NiC)2
_symmetry_space_group_name_H-M   'P 1'
_cell_length_a   8.71805900
_cell_length_b   8.72776843
_cell_length_c   8.73052262
_cell_angle_alpha   109.54469499
_cell_angle_beta   109.28114059
_cell_angle_gamma   109.41870632
_symmetry_Int_Tables_number   1
_chemical_formula_structural   Cu(NiC)2
_chemical_formula_sum   'Cu8 Ni16 C16'
_cell_volume   512.43972582
_cell_formula_units_Z   8
loop_
 _symmetry_equiv_pos_site_id
 _symmetry_equiv_pos_as_xyz
  1  'x, y, z'
loop_
 _atom_site_type_symbol
 _atom_site_label
 _atom_site_symmetry_multiplicity
 _atom_site_fract_x
 _atom_site_fract_y
 _atom_site_fract_z
 _atom_site_occupancy
  C  C0  1  0.98699600  0.49762400  0.98922300  1
  C  C1  1  0.53522200  0.74940700  0.29201700  1
  C  C2  1  0.25027700  0.21709400  0.96305400  1
  C  C3  1  0.24724400  0.72017000  0.47167300  1
  C  C4  1  0.95586300  0.25191400  0.21403900  1
  C  C5  1  0.71917000  0.46298500  0.25637600  1
  C  C6  1  0.21613800  0.96788900  0.25916100  1
  C  C7  1  0.51047400  0.50216200  0.49959200  1
  C  C8  1  0.00620300  0.00866400  0.52012200  1
  C  C9  1  0.28399900  0.53416000  0.74922600  1
  C  C10  1  0.50688600  0.99786200  0.99700300  1
  C  C11  1  0.77533400  0.02679300  0.74077100  1
  C  C12  1  0.03405600  0.74499600  0.78220000  1
  C  C13  1  0.75166500  0.78012400  0.02428400  1
  C  C14  1  0.75150800  0.28326600  0.53690000  1
  C  C15  1  0.46460000  0.25101000  0.70481400  1
  Ni  Ni16  1  0.96184800  0.73379200  0.99526100  1
  Ni  Ni17  1  0.96939900  0.51287500  0.23986500  1
  Ni  Ni18  1  0.52559700  0.77010800  0.54122500  1
  Ni  Ni19  1  0.26645000  0.77280500  0.73080900  1
  Ni  Ni20  1  0.45575200  0.46562000  0.22387700  1
  Ni  Ni21  1  0.03492400  0.48628000  0.76354000  1
  Ni  Ni22  1  0.23289200  0.96192500  0.50348900  1
  Ni  Ni23  1  0.46307400  0.22725400  0.45093600  1
  Ni  Ni24  1  0.77544400  0.54961000  0.53340700  1
  Ni  Ni25  1  0.99099900  0.95819400  0.73291200  1
  Ni  Ni26  1  0.54424000  0.53794600  0.77286900  1
  Ni  Ni27  1  0.73087500  0.98841100  0.95861400  1
  Ni  Ni28  1  0.73489800  0.22606100  0.26802000  1
  Ni  Ni29  1  0.22932400  0.27270700  0.74285400  1
  Ni  Ni30  1  0.72632600  0.26223600  0.77915000  1
  Ni  Ni31  1  0.76029100  0.03000000  0.48383000  1
  Cu  Cu32  1  0.27814700  0.74278200  0.22178500  1
  Cu  Cu33  1  0.48615800  0.76385400  0.03800500  1
  Cu  Cu34  1  0.04937900  0.27583700  0.01485300  1
  Cu  Cu35  1  0.76928100  0.72727800  0.25237700  1
  Cu  Cu36  1  0.01634300  0.05246800  0.27695100  1
  Cu  Cu37  1  0.27843400  0.01381500  0.04799800  1
  Cu  Cu38  1  0.21983100  0.44436900  0.46540600  1
  Cu  Cu39  1  0.50445500  0.22765700  0.96151100  1
