# generated using pymatgen
data_Cu3Ni2C21
_symmetry_space_group_name_H-M   'P 1'
_cell_length_a   6.44978521
_cell_length_b   6.44978521
_cell_length_c   17.10277711
_cell_angle_alpha   75.05317073
_cell_angle_beta   75.05317073
_cell_angle_gamma   62.70258541
_symmetry_Int_Tables_number   1
_chemical_formula_structural   Cu3Ni2C21
_chemical_formula_sum   'Cu6 Ni4 C42'
_cell_volume   602.71554439
_cell_formula_units_Z   2
loop_
 _symmetry_equiv_pos_site_id
 _symmetry_equiv_pos_as_xyz
  1  'x, y, z'
loop_
 _atom_site_type_symbol
 _atom_site_label
 _atom_site_symmetry_multiplicity
 _atom_site_fract_x
 _atom_site_fract_y
 _atom_site_fract_z
 _atom_site_occupancy
  C  C0  1  0.13294400  0.42418800  0.12556200  1
  C  C1  1  0.42418800  0.13294400  0.62556200  1
  C  C2  1  0.35553400  0.50719000  0.00666600  1
  C  C3  1  0.50719000  0.35553400  0.50666600  1
  C  C4  1  0.59863900  0.44835600  0.86355900  1
  C  C5  1  0.44835600  0.59863900  0.36355900  1
  C  C6  1  0.77057900  0.45679300  0.78059000  1
  C  C7  1  0.45679300  0.77057900  0.28059000  1
  C  C8  1  0.23863200  0.13499700  0.34330300  1
  C  C9  1  0.13499700  0.23863200  0.84330300  1
  C  C10  1  0.39463600  0.27683700  0.35186900  1
  C  C11  1  0.27683600  0.39463600  0.85186900  1
  C  C12  1  0.28396500  0.32850300  0.26275700  1
  C  C13  1  0.32850300  0.28396500  0.76275700  1
  C  C14  1  0.09294000  0.43395300  0.34647200  1
  C  C15  1  0.43395300  0.09294000  0.84647200  1
  C  C16  1  0.77281200  0.78561500  0.69992800  1
  C  C17  1  0.78561500  0.77281200  0.19992800  1
  C  C18  1  0.87334900  0.59947400  0.63550400  1
  C  C19  1  0.59947400  0.87334900  0.13550400  1
  C  C20  1  0.73580200  0.68901800  0.91552500  1
  C  C21  1  0.68901800  0.73580200  0.41552500  1
  C  C22  1  0.58838000  0.70250200  0.67646300  1
  C  C23  1  0.70250200  0.58838000  0.17646300  1
  C  C24  1  0.96825500  0.10049300  0.00728700  1
  C  C25  1  0.10049300  0.96825500  0.50728700  1
  Ni  Ni26  1  0.86032700  0.00794700  0.39000200  1
  Ni  Ni27  1  0.00794700  0.86032700  0.89000200  1
  Ni  Ni28  1  0.03175200  0.11339700  0.13061000  1
  Ni  Ni29  1  0.11339700  0.03175200  0.63061000  1
  Cu  Cu30  1  0.42827600  0.60454400  0.02347700  1
  Cu  Cu31  1  0.60454400  0.42827600  0.52347700  1
  Cu  Cu32  1  0.24732200  0.29695700  0.32561000  1
  Cu  Cu33  1  0.29695700  0.24732200  0.82561000  1
  Cu  Cu34  1  0.75754800  0.64678700  0.68758600  1
  Cu  Cu35  1  0.64678700  0.75754800  0.18758600  1
  C  C36  1  0.90778000  0.92329400  0.48838800  1
  C  C37  1  0.92329400  0.90778000  0.98838800  1
  C  C38  1  0.81204500  0.76371500  0.37176900  1
  C  C39  1  0.76371500  0.81204500  0.87176900  1
  C  C40  1  0.58389100  0.23304300  0.39726900  1
  C  C41  1  0.23304300  0.58389100  0.89726900  1
  C  C42  1  0.36163700  0.76203900  0.33790600  1
  C  C43  1  0.76203900  0.36163700  0.83790600  1
  C  C44  1  0.00554400  0.22215100  0.02528300  1
  C  C45  1  0.22215100  0.00554400  0.52528300  1
  C  C46  1  0.21532000  0.25199200  0.13921200  1
  C  C47  1  0.25199200  0.21532000  0.63921200  1
  C  C48  1  0.76475800  0.26788500  0.17693800  1
  C  C49  1  0.26788500  0.76475800  0.67693800  1
  C  C50  1  0.34745400  0.63378800  0.09480700  1
  C  C51  1  0.63378800  0.34745400  0.59480700  1
