# generated using pymatgen
data_CuNi2C3
_symmetry_space_group_name_H-M   'P 1'
_cell_length_a   15.05661200
_cell_length_b   9.37799500
_cell_length_c   11.77194185
_cell_angle_alpha   64.77509796
_cell_angle_beta   90.00000000
_cell_angle_gamma   90.00000000
_symmetry_Int_Tables_number   1
_chemical_formula_structural   CuNi2C3
_chemical_formula_sum   'Cu8 Ni16 C24'
_cell_volume   1503.70301126
_cell_formula_units_Z   8
loop_
 _symmetry_equiv_pos_site_id
 _symmetry_equiv_pos_as_xyz
  1  'x, y, z'
loop_
 _atom_site_type_symbol
 _atom_site_label
 _atom_site_symmetry_multiplicity
 _atom_site_fract_x
 _atom_site_fract_y
 _atom_site_fract_z
 _atom_site_occupancy
  C  C0  1  0.74707100  0.21017200  0.08770600  1
  C  C1  1  0.75292900  0.21017200  0.58770600  1
  C  C2  1  0.25292900  0.78982800  0.91229400  1
  C  C3  1  0.24707100  0.78982800  0.41229400  1
  Ni  Ni4  1  0.93435000  0.68151800  0.20998900  1
  Ni  Ni5  1  0.56565000  0.68151800  0.70998900  1
  Ni  Ni6  1  0.06565000  0.31848200  0.79001100  1
  Ni  Ni7  1  0.43435000  0.31848200  0.29001100  1
  Ni  Ni8  1  0.97259100  0.55332000  0.22948400  1
  Ni  Ni9  1  0.52740900  0.55332000  0.72948400  1
  Ni  Ni10  1  0.02740900  0.44668000  0.77051600  1
  Ni  Ni11  1  0.47259100  0.44668000  0.27051600  1
  Ni  Ni12  1  0.55891400  0.70518400  0.20536800  1
  Ni  Ni13  1  0.94108600  0.70518400  0.70536800  1
  Ni  Ni14  1  0.44108600  0.29481600  0.79463200  1
  Ni  Ni15  1  0.05891400  0.29481600  0.29463200  1
  Ni  Ni16  1  0.51506200  0.57826900  0.24173900  1
  Ni  Ni17  1  0.98493800  0.57826900  0.74173900  1
  Ni  Ni18  1  0.48493800  0.42173100  0.75826100  1
  Ni  Ni19  1  0.01506200  0.42173100  0.25826100  1
  Cu  Cu20  1  0.88592900  0.82597000  0.22524800  1
  Cu  Cu21  1  0.61407100  0.82597000  0.72524800  1
  Cu  Cu22  1  0.11407100  0.17403000  0.77475200  1
  Cu  Cu23  1  0.38592900  0.17403000  0.27475200  1
  Cu  Cu24  1  0.60467500  0.87168700  0.11912800  1
  Cu  Cu25  1  0.89532500  0.87168700  0.61912800  1
  Cu  Cu26  1  0.39532500  0.12831300  0.88087200  1
  Cu  Cu27  1  0.10467500  0.12831300  0.38087200  1
  C  C28  1  0.73748500  0.17741700  0.89543200  1
  C  C29  1  0.76251500  0.17741700  0.39543200  1
  C  C30  1  0.26251500  0.82258300  0.10456800  1
  C  C31  1  0.23748500  0.82258300  0.60456800  1
  C  C32  1  0.81311000  0.46932100  0.99016200  1
  C  C33  1  0.68689000  0.46932100  0.49016200  1
  C  C34  1  0.18689000  0.53067900  0.00983800  1
  C  C35  1  0.31311000  0.53067900  0.50983800  1
  C  C36  1  0.59605000  0.29997300  0.07584200  1
  C  C37  1  0.90395000  0.29997300  0.57584200  1
  C  C38  1  0.40395000  0.70002700  0.92415800  1
  C  C39  1  0.09605000  0.70002700  0.42415800  1
  C  C40  1  0.89375600  0.98057500  0.11234300  1
  C  C41  1  0.60624400  0.98057500  0.61234300  1
  C  C42  1  0.10624400  0.01942500  0.88765700  1
  C  C43  1  0.39375600  0.01942500  0.38765700  1
  C  C44  1  0.67461400  0.92084900  0.18747100  1
  C  C45  1  0.82538600  0.92084900  0.68747100  1
  C  C46  1  0.32538600  0.07915100  0.81252900  1
  C  C47  1  0.17461400  0.07915100  0.31252900  1
