# generated using pymatgen
data_Cu4Ni10C23
_symmetry_space_group_name_H-M   'P 1'
_cell_length_a   9.20406500
_cell_length_b   8.40983500
_cell_length_c   10.15475630
_cell_angle_alpha   65.51143216
_cell_angle_beta   90.00000000
_cell_angle_gamma   90.00000000
_symmetry_Int_Tables_number   1
_chemical_formula_structural   Cu4Ni10C23
_chemical_formula_sum   'Cu8 Ni20 C46'
_cell_volume   715.31782308
_cell_formula_units_Z   2
loop_
 _symmetry_equiv_pos_site_id
 _symmetry_equiv_pos_as_xyz
  1  'x, y, z'
loop_
 _atom_site_type_symbol
 _atom_site_label
 _atom_site_symmetry_multiplicity
 _atom_site_fract_x
 _atom_site_fract_y
 _atom_site_fract_z
 _atom_site_occupancy
  C  C0  1  0.56956200  0.14055800  0.34464600  1
  C  C1  1  0.06956200  0.35944200  0.65535400  1
  C  C2  1  0.43043800  0.85944200  0.65535400  1
  C  C3  1  0.93043800  0.64055800  0.34464600  1
  C  C4  1  0.93103400  0.00835300  0.34547500  1
  C  C5  1  0.43103400  0.49164700  0.65452500  1
  C  C6  1  0.06896600  0.99164700  0.65452500  1
  C  C7  1  0.56896600  0.50835300  0.34547500  1
  C  C8  1  0.50000000  0.50000000  0.00000000  1
  C  C9  1  0.00000000  0.00000000  0.00000000  1
  Ni  Ni10  1  0.37768400  0.38090100  0.23366500  1
  Ni  Ni11  1  0.87768400  0.11909900  0.76633500  1
  Ni  Ni12  1  0.62231600  0.61909900  0.76633500  1
  Ni  Ni13  1  0.12231600  0.88090100  0.23366500  1
  Ni  Ni14  1  0.12618800  0.20858300  0.14750000  1
  Ni  Ni15  1  0.62618800  0.29141700  0.85250000  1
  Ni  Ni16  1  0.87381200  0.79141700  0.85250000  1
  Ni  Ni17  1  0.37381200  0.70858300  0.14750000  1
  Ni  Ni18  1  0.19661000  0.14041300  0.30150900  1
  Ni  Ni19  1  0.69661000  0.35958700  0.69849100  1
  Ni  Ni20  1  0.80339000  0.85958700  0.69849100  1
  Ni  Ni21  1  0.30339000  0.64041300  0.30150900  1
  Ni  Ni22  1  0.40403000  0.13007300  0.13700300  1
  Ni  Ni23  1  0.90403000  0.36992700  0.86299700  1
  Ni  Ni24  1  0.59597000  0.86992700  0.86299700  1
  Ni  Ni25  1  0.09597000  0.63007300  0.13700300  1
  Ni  Ni26  1  0.41572500  0.92349500  0.24618800  1
  Ni  Ni27  1  0.91572500  0.57650500  0.75381200  1
  Ni  Ni28  1  0.58427500  0.07650500  0.75381200  1
  Ni  Ni29  1  0.08427500  0.42349500  0.24618800  1
  Cu  Cu30  1  0.76650900  0.22778800  0.07982200  1
  Cu  Cu31  1  0.26650900  0.27221200  0.92017800  1
  Cu  Cu32  1  0.23349100  0.77221200  0.92017800  1
  Cu  Cu33  1  0.73349100  0.72778800  0.07982200  1
  Cu  Cu34  1  0.83272400  0.26253200  0.47388100  1
  Cu  Cu35  1  0.33272400  0.23746800  0.52611900  1
  Cu  Cu36  1  0.16727600  0.73746800  0.52611900  1
  Cu  Cu37  1  0.66727600  0.76253200  0.47388100  1
  C  C38  1  0.48349800  0.38412200  0.22583200  1
  C  C39  1  0.98349800  0.11587800  0.77416800  1
  C  C40  1  0.51650200  0.61587800  0.77416800  1
  C  C41  1  0.01650200  0.88412200  0.22583200  1
  C  C42  1  0.11210000  0.20591900  0.24641000  1
  C  C43  1  0.61210000  0.29408100  0.75359000  1
  C  C44  1  0.88790000  0.79408100  0.75359000  1
  C  C45  1  0.38790000  0.70591900  0.24641000  1
  C  C46  1  0.42360900  0.04329900  0.23990700  1
  C  C47  1  0.92360900  0.45670100  0.76009300  1
  C  C48  1  0.57639100  0.95670100  0.76009300  1
  C  C49  1  0.07639100  0.54329900  0.23990700  1
  C  C50  1  0.66843400  0.33581800  0.00517600  1
  C  C51  1  0.16843400  0.16418200  0.99482400  1
  C  C52  1  0.33156600  0.66418200  0.99482400  1
  C  C53  1  0.83156600  0.83581800  0.00517600  1
  C  C54  1  0.87723700  0.19965400  0.01444900  1
  C  C55  1  0.37723700  0.30034600  0.98555100  1
  C  C56  1  0.12276300  0.80034600  0.98555100  1
  C  C57  1  0.62276300  0.69965400  0.01444900  1
  C  C58  1  0.75695700  0.14653700  0.22098700  1
  C  C59  1  0.25695700  0.35346300  0.77901300  1
  C  C60  1  0.24304300  0.85346300  0.77901300  1
  C  C61  1  0.74304300  0.64653700  0.22098700  1
  C  C62  1  0.69931900  0.28296500  0.43124200  1
  C  C63  1  0.19931900  0.21703500  0.56875800  1
  C  C64  1  0.30068100  0.71703500  0.56875800  1
  C  C65  1  0.80068100  0.78296500  0.43124200  1
  C  C66  1  0.90095000  0.11815500  0.49525100  1
  C  C67  1  0.40095000  0.38184500  0.50474900  1
  C  C68  1  0.09905000  0.88184500  0.50474900  1
  C  C69  1  0.59905000  0.61815500  0.49525100  1
  C  C70  1  0.89788700  0.38512500  0.49759800  1
  C  C71  1  0.39788700  0.11487500  0.50240200  1
  C  C72  1  0.10211300  0.61487500  0.50240200  1
  C  C73  1  0.60211300  0.88512500  0.49759800  1
