# generated using pymatgen
data_CuNi3C20
_symmetry_space_group_name_H-M   'P 1'
_cell_length_a   6.01260700
_cell_length_b   4.92070600
_cell_length_c   9.85369837
_cell_angle_alpha   89.72637329
_cell_angle_beta   90.00000000
_cell_angle_gamma   90.00000000
_symmetry_Int_Tables_number   1
_chemical_formula_structural   CuNi3C20
_chemical_formula_sum   'Cu1 Ni3 C20'
_cell_volume   291.53086907
_cell_formula_units_Z   1
loop_
 _symmetry_equiv_pos_site_id
 _symmetry_equiv_pos_as_xyz
  1  'x, y, z'
loop_
 _atom_site_type_symbol
 _atom_site_label
 _atom_site_symmetry_multiplicity
 _atom_site_fract_x
 _atom_site_fract_y
 _atom_site_fract_z
 _atom_site_occupancy
  Ni  Ni0  1  0.50000000  0.92902100  0.28532200  1
  Ni  Ni1  1  0.50000000  0.56680900  0.78229000  1
  Ni  Ni2  1  0.00000000  0.43110500  0.21486500  1
  Cu  Cu3  1  0.00000000  0.04347500  0.72298200  1
  C  C4  1  0.00000000  0.91266400  0.39965100  1
  C  C5  1  0.00000000  0.58700800  0.90320700  1
  C  C6  1  0.50000000  0.41701500  0.09937400  1
  C  C7  1  0.50000000  0.08629200  0.59977600  1
  C  C8  1  0.00000000  0.85264200  0.55220400  1
  C  C9  1  0.20058800  0.77089200  0.32799600  1
  C  C10  1  0.79941200  0.77089200  0.32799600  1
  C  C11  1  0.50000000  0.77373900  0.61910700  1
  C  C12  1  0.50000000  0.72696000  0.11982400  1
  C  C13  1  0.19804000  0.73687000  0.82917700  1
  C  C14  1  0.80196000  0.73687000  0.82917700  1
  C  C15  1  0.00000000  0.65397100  0.05504000  1
  C  C16  1  0.50000000  0.35907700  0.94561000  1
  C  C17  1  0.70054700  0.27261000  0.16959800  1
  C  C18  1  0.29945300  0.27261000  0.16959800  1
  C  C19  1  0.00000000  0.28152300  0.88045200  1
  C  C20  1  0.00000000  0.22341100  0.37861800  1
  C  C21  1  0.70280300  0.22470400  0.67096700  1
  C  C22  1  0.29719700  0.22470400  0.67096700  1
  C  C23  1  0.50000000  0.14513400  0.44619900  1
