# generated using pymatgen
data_CuNiC3
_symmetry_space_group_name_H-M   'P 1'
_cell_length_a   8.58380800
_cell_length_b   8.58380800
_cell_length_c   8.58380800
_cell_angle_alpha   90.00000000
_cell_angle_beta   90.00000000
_cell_angle_gamma   90.00000000
_symmetry_Int_Tables_number   1
_chemical_formula_structural   CuNiC3
_chemical_formula_sum   'Cu8 Ni8 C24'
_cell_volume   632.47007906
_cell_formula_units_Z   8
loop_
 _symmetry_equiv_pos_site_id
 _symmetry_equiv_pos_as_xyz
  1  'x, y, z'
loop_
 _atom_site_type_symbol
 _atom_site_label
 _atom_site_symmetry_multiplicity
 _atom_site_fract_x
 _atom_site_fract_y
 _atom_site_fract_z
 _atom_site_occupancy
  C  C0  1  0.16391500  0.17963100  0.72174000  1
  C  C1  1  0.16391500  0.32036900  0.22174000  1
  C  C2  1  0.17963100  0.72174000  0.16391500  1
  C  C3  1  0.17963100  0.77826000  0.66391500  1
  C  C4  1  0.22174000  0.16391500  0.32036900  1
  C  C5  1  0.22174000  0.33608500  0.82036900  1
  C  C6  1  0.27826000  0.66391500  0.32036900  1
  C  C7  1  0.27826000  0.83608500  0.82036900  1
  C  C8  1  0.32036900  0.22174000  0.16391500  1
  C  C9  1  0.32036900  0.27826000  0.66391500  1
  C  C10  1  0.33608500  0.82036900  0.22174000  1
  C  C11  1  0.33608500  0.67963100  0.72174000  1
  C  C12  1  0.66391500  0.17963100  0.77826000  1
  C  C13  1  0.66391500  0.32036900  0.27826000  1
  C  C14  1  0.67963100  0.72174000  0.33608500  1
  C  C15  1  0.67963100  0.77826000  0.83608500  1
  C  C16  1  0.72174000  0.16391500  0.17963100  1
  C  C17  1  0.72174000  0.33608500  0.67963100  1
  C  C18  1  0.77826000  0.66391500  0.17963100  1
  C  C19  1  0.77826000  0.83608500  0.67963100  1
  C  C20  1  0.82036900  0.22174000  0.33608500  1
  C  C21  1  0.82036900  0.27826000  0.83608500  1
  C  C22  1  0.83608500  0.67963100  0.77826000  1
  C  C23  1  0.83608500  0.82036900  0.27826000  1
  Ni  Ni24  1  0.24091400  0.75908600  0.25908600  1
  Ni  Ni25  1  0.24091400  0.74091400  0.75908600  1
  Ni  Ni26  1  0.25908600  0.25908600  0.25908600  1
  Ni  Ni27  1  0.25908600  0.24091400  0.75908600  1
  Ni  Ni28  1  0.74091400  0.74091400  0.74091400  1
  Ni  Ni29  1  0.74091400  0.75908600  0.24091400  1
  Ni  Ni30  1  0.75908600  0.24091400  0.74091400  1
  Ni  Ni31  1  0.75908600  0.25908600  0.24091400  1
  Cu  Cu32  1  0.07530600  0.92469400  0.42469400  1
  Cu  Cu33  1  0.07530600  0.57530600  0.92469400  1
  Cu  Cu34  1  0.42469400  0.07530600  0.92469400  1
  Cu  Cu35  1  0.42469400  0.42469400  0.42469400  1
  Cu  Cu36  1  0.57530600  0.57530600  0.57530600  1
  Cu  Cu37  1  0.57530600  0.92469400  0.07530600  1
  Cu  Cu38  1  0.92469400  0.07530600  0.57530600  1
  Cu  Cu39  1  0.92469400  0.42469400  0.07530600  1
