# generated using pymatgen
data_Cu3NiC16
_symmetry_space_group_name_H-M   'P 1'
_cell_length_a   7.87811964
_cell_length_b   7.87811964
_cell_length_c   7.87811919
_cell_angle_alpha   90.57167052
_cell_angle_beta   90.57167052
_cell_angle_gamma   90.57166712
_symmetry_Int_Tables_number   1
_chemical_formula_structural   Cu3NiC16
_chemical_formula_sum   'Cu6 Ni2 C32'
_cell_volume   488.88014597
_cell_formula_units_Z   2
loop_
 _symmetry_equiv_pos_site_id
 _symmetry_equiv_pos_as_xyz
  1  'x, y, z'
loop_
 _atom_site_type_symbol
 _atom_site_label
 _atom_site_symmetry_multiplicity
 _atom_site_fract_x
 _atom_site_fract_y
 _atom_site_fract_z
 _atom_site_occupancy
  Ni  Ni0  1  0.75000000  0.75000000  0.75000000  1
  Ni  Ni1  1  0.25000000  0.25000000  0.25000000  1
  Cu  Cu2  1  0.75000000  0.24812300  0.25187700  1
  Cu  Cu3  1  0.25187700  0.75000000  0.24812300  1
  Cu  Cu4  1  0.74812300  0.25000000  0.75187700  1
  Cu  Cu5  1  0.24812300  0.25187700  0.75000000  1
  Cu  Cu6  1  0.25000000  0.75187700  0.74812300  1
  Cu  Cu7  1  0.75187700  0.74812300  0.25000000  1
  C  C8  1  0.50000000  0.50000000  0.50000000  1
  C  C9  1  0.50000000  0.00000000  0.00000000  1
  C  C10  1  0.00000000  0.50000000  0.00000000  1
  C  C11  1  0.00000000  0.50000000  0.50000000  1
  C  C12  1  0.50000000  0.00000000  0.50000000  1
  C  C13  1  0.00000000  0.00000000  0.50000000  1
  C  C14  1  0.00000000  0.00000000  0.00000000  1
  C  C15  1  0.50000000  0.50000000  0.00000000  1
  C  C16  1  0.74996400  0.03435400  0.97419900  1
  C  C17  1  0.02580100  0.25003600  0.96564600  1
  C  C18  1  0.25000000  0.53052200  0.96947800  1
  C  C19  1  0.52347500  0.75000000  0.97652500  1
  C  C20  1  0.02347500  0.47652500  0.25000000  1
  C  C21  1  0.47419900  0.53435400  0.24996400  1
  C  C22  1  0.75003600  0.52580100  0.46564600  1
  C  C23  1  0.53052200  0.96947800  0.25000000  1
  C  C24  1  0.03052200  0.75000000  0.46947800  1
  C  C25  1  0.96564600  0.02580100  0.25003600  1
  C  C26  1  0.46564600  0.75003600  0.52580100  1
  C  C27  1  0.75000000  0.97652500  0.52347500  1
  C  C28  1  0.25000000  0.02347500  0.47652500  1
  C  C29  1  0.53435400  0.24996400  0.47419900  1
  C  C30  1  0.03435400  0.97419900  0.74996400  1
  C  C31  1  0.96947800  0.25000000  0.53052200  1
  C  C32  1  0.46947800  0.03052200  0.75000000  1
  C  C33  1  0.24996400  0.47419900  0.53435400  1
  C  C34  1  0.52580100  0.46564600  0.75003600  1
  C  C35  1  0.97652500  0.52347500  0.75000000  1
  C  C36  1  0.47652500  0.25000000  0.02347500  1
  C  C37  1  0.75000000  0.46947800  0.03052200  1
  C  C38  1  0.97419900  0.74996400  0.03435400  1
  C  C39  1  0.25003600  0.96564600  0.02580100  1
