# generated using pymatgen
data_Cu9Ni2C13
_symmetry_space_group_name_H-M   'P 1'
_cell_length_a   8.60145000
_cell_length_b   12.65503200
_cell_length_c   17.29958900
_cell_angle_alpha   90.00000000
_cell_angle_beta   90.00000000
_cell_angle_gamma   90.00000000
_symmetry_Int_Tables_number   1
_chemical_formula_structural   Cu9Ni2C13
_chemical_formula_sum   'Cu36 Ni8 C52'
_cell_volume   1883.08837442
_cell_formula_units_Z   4
loop_
 _symmetry_equiv_pos_site_id
 _symmetry_equiv_pos_as_xyz
  1  'x, y, z'
loop_
 _atom_site_type_symbol
 _atom_site_label
 _atom_site_symmetry_multiplicity
 _atom_site_fract_x
 _atom_site_fract_y
 _atom_site_fract_z
 _atom_site_occupancy
  C  C0  1  0.50000000  0.50000000  0.00000000  1
  C  C1  1  0.00000000  0.00000000  0.50000000  1
  C  C2  1  0.50000000  0.50000000  0.50000000  1
  C  C3  1  0.00000000  0.00000000  0.00000000  1
  C  C4  1  0.17260800  0.43402900  0.05628300  1
  C  C5  1  0.32739200  0.93402900  0.44371700  1
  C  C6  1  0.82739200  0.56597100  0.55628300  1
  C  C7  1  0.67260800  0.06597100  0.94371700  1
  C  C8  1  0.82739200  0.56597100  0.94371700  1
  C  C9  1  0.67260800  0.06597100  0.55628300  1
  C  C10  1  0.17260800  0.43402900  0.44371700  1
  C  C11  1  0.32739200  0.93402900  0.05628300  1
  C  C12  1  0.40368000  0.29710600  0.13252900  1
  C  C13  1  0.09632000  0.79710600  0.36747100  1
  C  C14  1  0.59632000  0.70289400  0.63252900  1
  C  C15  1  0.90368000  0.20289400  0.86747100  1
  C  C16  1  0.59632000  0.70289400  0.86747100  1
  C  C17  1  0.90368000  0.20289400  0.63252900  1
  C  C18  1  0.40368000  0.29710600  0.36747100  1
  C  C19  1  0.09632000  0.79710600  0.13252900  1
  C  C20  1  0.17463200  0.31943700  0.22839300  1
  C  C21  1  0.32536800  0.81943700  0.27160700  1
  C  C22  1  0.82536800  0.68056300  0.72839300  1
  C  C23  1  0.67463200  0.18056300  0.77160700  1
  C  C24  1  0.82536800  0.68056300  0.77160700  1
  C  C25  1  0.67463200  0.18056300  0.72839300  1
  C  C26  1  0.17463200  0.31943700  0.27160700  1
  C  C27  1  0.32536800  0.81943700  0.22839300  1
  C  C28  1  0.87777700  0.34840500  0.22833800  1
  C  C29  1  0.62222300  0.84840500  0.27166200  1
  C  C30  1  0.12222300  0.65159500  0.72833800  1
  C  C31  1  0.37777700  0.15159500  0.77166200  1
  C  C32  1  0.12222300  0.65159500  0.77166200  1
  C  C33  1  0.37777700  0.15159500  0.72833800  1
  C  C34  1  0.87777700  0.34840500  0.27166200  1
  C  C35  1  0.62222300  0.84840500  0.22833800  1
  C  C36  1  0.21176300  0.88680100  0.95698100  1
  C  C37  1  0.28823700  0.38680100  0.54301900  1
  C  C38  1  0.78823700  0.11319900  0.45698100  1
  C  C39  1  0.71176300  0.61319900  0.04301900  1
  C  C40  1  0.78823700  0.11319900  0.04301900  1
  C  C41  1  0.71176300  0.61319900  0.45698100  1
  C  C42  1  0.21176300  0.88680100  0.54301900  1
  C  C43  1  0.28823700  0.38680100  0.95698100  1
  C  C44  1  0.97807700  0.19167700  0.84636600  1
  C  C45  1  0.52192300  0.69167700  0.65363400  1
  C  C46  1  0.02192300  0.80832300  0.34636600  1
  C  C47  1  0.47807700  0.30832300  0.15363400  1
  C  C48  1  0.02192300  0.80832300  0.15363400  1
  C  C49  1  0.47807700  0.30832300  0.34636600  1
  C  C50  1  0.97807700  0.19167700  0.65363400  1
  C  C51  1  0.52192300  0.69167700  0.84636600  1
  Ni  Ni52  1  0.83336900  0.66194800  0.25000000  1
  Ni  Ni53  1  0.66663100  0.16194800  0.25000000  1
  Ni  Ni54  1  0.16663100  0.33805200  0.75000000  1
  Ni  Ni55  1  0.33336900  0.83805200  0.75000000  1
  Ni  Ni56  1  0.00974500  0.57061200  0.25000000  1
  Ni  Ni57  1  0.49025500  0.07061200  0.25000000  1
  Ni  Ni58  1  0.99025500  0.42938800  0.75000000  1
  Ni  Ni59  1  0.50974500  0.92938800  0.75000000  1
  Cu  Cu60  1  0.07565700  0.44290300  0.09098300  1
  Cu  Cu61  1  0.42434300  0.94290300  0.40901700  1
  Cu  Cu62  1  0.92434300  0.55709700  0.59098300  1
  Cu  Cu63  1  0.57565700  0.05709700  0.90901700  1
  Cu  Cu64  1  0.92434300  0.55709700  0.90901700  1
  Cu  Cu65  1  0.57565700  0.05709700  0.59098300  1
  Cu  Cu66  1  0.07565700  0.44290300  0.40901700  1
  Cu  Cu67  1  0.42434300  0.94290300  0.09098300  1
  Cu  Cu68  1  0.16304000  0.62217200  0.25000000  1
  Cu  Cu69  1  0.33696000  0.12217200  0.25000000  1
  Cu  Cu70  1  0.83696000  0.37782800  0.75000000  1
  Cu  Cu71  1  0.66304000  0.87782800  0.75000000  1
  Cu  Cu72  1  0.32190000  0.42591900  0.00245000  1
  Cu  Cu73  1  0.17810000  0.92591900  0.49755000  1
  Cu  Cu74  1  0.67810000  0.57408100  0.50245000  1
  Cu  Cu75  1  0.82190000  0.07408100  0.99755000  1
  Cu  Cu76  1  0.67810000  0.57408100  0.99755000  1
  Cu  Cu77  1  0.82190000  0.07408100  0.50245000  1
  Cu  Cu78  1  0.32190000  0.42591900  0.49755000  1
  Cu  Cu79  1  0.17810000  0.92591900  0.00245000  1
  Cu  Cu80  1  0.46926500  0.12481800  0.93654800  1
  Cu  Cu81  1  0.03073500  0.62481800  0.56345200  1
  Cu  Cu82  1  0.53073500  0.87518200  0.43654800  1
  Cu  Cu83  1  0.96926500  0.37518200  0.06345200  1
  Cu  Cu84  1  0.53073500  0.87518200  0.06345200  1
  Cu  Cu85  1  0.96926500  0.37518200  0.43654800  1
  Cu  Cu86  1  0.46926500  0.12481800  0.56345200  1
  Cu  Cu87  1  0.03073500  0.62481800  0.93654800  1
  Cu  Cu88  1  0.01718200  0.02897900  0.28560600  1
  Cu  Cu89  1  0.48281800  0.52897900  0.21439400  1
  Cu  Cu90  1  0.98281800  0.97102100  0.78560600  1
  Cu  Cu91  1  0.51718200  0.47102100  0.71439400  1
  Cu  Cu92  1  0.98281800  0.97102100  0.71439400  1
  Cu  Cu93  1  0.51718200  0.47102100  0.78560600  1
  Cu  Cu94  1  0.01718200  0.02897900  0.21439400  1
  Cu  Cu95  1  0.48281800  0.52897900  0.28560600  1
