# generated using pymatgen
data_Cu2Ni5C4
_symmetry_space_group_name_H-M   'P 1'
_cell_length_a   8.50262300
_cell_length_b   9.09274900
_cell_length_c   9.21765600
_cell_angle_alpha   90.00000000
_cell_angle_beta   90.00000000
_cell_angle_gamma   90.00000000
_symmetry_Int_Tables_number   1
_chemical_formula_structural   Cu2Ni5C4
_chemical_formula_sum   'Cu8 Ni20 C16'
_cell_volume   712.63741888
_cell_formula_units_Z   4
loop_
 _symmetry_equiv_pos_site_id
 _symmetry_equiv_pos_as_xyz
  1  'x, y, z'
loop_
 _atom_site_type_symbol
 _atom_site_label
 _atom_site_symmetry_multiplicity
 _atom_site_fract_x
 _atom_site_fract_y
 _atom_site_fract_z
 _atom_site_occupancy
  C  C0  1  0.75000000  0.43460700  0.01702500  1
  C  C1  1  0.25000000  0.99944400  0.04488900  1
  C  C2  1  0.96677700  0.79038600  0.23951200  1
  C  C3  1  0.53322300  0.79038600  0.23951200  1
  C  C4  1  0.03322300  0.29038600  0.26048800  1
  C  C5  1  0.46677700  0.29038600  0.26048800  1
  C  C6  1  0.75000000  0.49944400  0.45511100  1
  C  C7  1  0.25000000  0.93460700  0.48297500  1
  C  C8  1  0.75000000  0.06539300  0.51702500  1
  C  C9  1  0.25000000  0.50055600  0.54488900  1
  C  C10  1  0.53322300  0.70961400  0.73951200  1
  C  C11  1  0.96677700  0.70961400  0.73951200  1
  C  C12  1  0.03322300  0.20961400  0.76048800  1
  C  C13  1  0.46677700  0.20961400  0.76048800  1
  C  C14  1  0.75000000  0.00055600  0.95511100  1
  C  C15  1  0.25000000  0.56539300  0.98297500  1
  Ni  Ni16  1  0.06409200  0.83617700  0.02511200  1
  Ni  Ni17  1  0.43590800  0.83617700  0.02511200  1
  Ni  Ni18  1  0.56102700  0.49252100  0.16604800  1
  Ni  Ni19  1  0.93897300  0.49252100  0.16604800  1
  Ni  Ni20  1  0.75000000  0.92464100  0.17949900  1
  Ni  Ni21  1  0.25000000  0.42464100  0.32050100  1
  Ni  Ni22  1  0.06102700  0.99252100  0.33395200  1
  Ni  Ni23  1  0.43897300  0.99252100  0.33395200  1
  Ni  Ni24  1  0.56409200  0.33617700  0.47488800  1
  Ni  Ni25  1  0.93590800  0.33617700  0.47488800  1
  Ni  Ni26  1  0.06409200  0.66382300  0.52511200  1
  Ni  Ni27  1  0.43590800  0.66382300  0.52511200  1
  Ni  Ni28  1  0.56102700  0.00747900  0.66604800  1
  Ni  Ni29  1  0.93897300  0.00747900  0.66604800  1
  Ni  Ni30  1  0.75000000  0.57535900  0.67949900  1
  Ni  Ni31  1  0.25000000  0.07535900  0.82050100  1
  Ni  Ni32  1  0.06102700  0.50747900  0.83395200  1
  Ni  Ni33  1  0.43897300  0.50747900  0.83395200  1
  Ni  Ni34  1  0.56409200  0.16382300  0.97488800  1
  Ni  Ni35  1  0.93590800  0.16382300  0.97488800  1
  Cu  Cu36  1  0.25000000  0.32135900  0.02985100  1
  Cu  Cu37  1  0.75000000  0.25336700  0.21929300  1
  Cu  Cu38  1  0.25000000  0.75336700  0.28070700  1
  Cu  Cu39  1  0.75000000  0.82135900  0.47014900  1
  Cu  Cu40  1  0.25000000  0.17864100  0.52985100  1
  Cu  Cu41  1  0.75000000  0.24663300  0.71929300  1
  Cu  Cu42  1  0.25000000  0.74663300  0.78070700  1
  Cu  Cu43  1  0.75000000  0.67864100  0.97014900  1
