# generated using pymatgen
data_CuNiC
_symmetry_space_group_name_H-M   'P 1'
_cell_length_a   3.70684300
_cell_length_b   4.15452000
_cell_length_c   9.20060200
_cell_angle_alpha   90.00000000
_cell_angle_beta   90.00000000
_cell_angle_gamma   90.00000000
_symmetry_Int_Tables_number   1
_chemical_formula_structural   CuNiC
_chemical_formula_sum   'Cu2 Ni2 C2'
_cell_volume   141.69068199
_cell_formula_units_Z   2
loop_
 _symmetry_equiv_pos_site_id
 _symmetry_equiv_pos_as_xyz
  1  'x, y, z'
loop_
 _atom_site_type_symbol
 _atom_site_label
 _atom_site_symmetry_multiplicity
 _atom_site_fract_x
 _atom_site_fract_y
 _atom_site_fract_z
 _atom_site_occupancy
  C  C0  1  0.50000000  0.00000000  0.11195400  1
  C  C1  1  0.00000000  0.50000000  0.88804600  1
  Ni  Ni2  1  0.00000000  0.00000000  0.31702200  1
  Ni  Ni3  1  0.50000000  0.50000000  0.68297800  1
  Cu  Cu4  1  0.00000000  0.00000000  0.96939600  1
  Cu  Cu5  1  0.50000000  0.50000000  0.03060400  1
