# generated using pymatgen
data_Cu3(NiC4)2
_symmetry_space_group_name_H-M   'P 1'
_cell_length_a   9.97489657
_cell_length_b   9.97489657
_cell_length_c   14.65975500
_cell_angle_alpha   90.00000000
_cell_angle_beta   90.00000000
_cell_angle_gamma   120.00000381
_symmetry_Int_Tables_number   1
_chemical_formula_structural   Cu3(NiC4)2
_chemical_formula_sum   'Cu18 Ni12 C48'
_cell_volume   1263.20585517
_cell_formula_units_Z   6
loop_
 _symmetry_equiv_pos_site_id
 _symmetry_equiv_pos_as_xyz
  1  'x, y, z'
loop_
 _atom_site_type_symbol
 _atom_site_label
 _atom_site_symmetry_multiplicity
 _atom_site_fract_x
 _atom_site_fract_y
 _atom_site_fract_z
 _atom_site_occupancy
  Ni  Ni0  1  0.01883600  0.62604300  0.37509000  1
  Ni  Ni1  1  0.02055900  0.62751500  0.87626900  1
  Ni  Ni2  1  0.60720700  0.98116400  0.37509000  1
  Ni  Ni3  1  0.60695600  0.97944100  0.87626900  1
  Ni  Ni4  1  0.37248500  0.39304400  0.87626900  1
  Ni  Ni5  1  0.37395700  0.39279300  0.37509000  1
  Ni  Ni6  1  0.62604300  0.60720700  0.62491000  1
  Ni  Ni7  1  0.62751500  0.60695600  0.12373100  1
  Ni  Ni8  1  0.39279300  0.01883600  0.62491000  1
  Ni  Ni9  1  0.39304400  0.02055900  0.12373100  1
  Ni  Ni10  1  0.98116400  0.37395700  0.62491000  1
  Ni  Ni11  1  0.97944100  0.37248500  0.12373100  1
  Cu  Cu12  1  0.99518100  0.73904900  0.62860200  1
  Cu  Cu13  1  0.00971600  0.74539700  0.12714400  1
  Cu  Cu14  1  0.33333300  0.66666700  0.01748900  1
  Cu  Cu15  1  0.33333300  0.66666700  0.48790300  1
  Cu  Cu16  1  0.33333300  0.66666700  0.74842400  1
  Cu  Cu17  1  0.26095100  0.25613200  0.62860200  1
  Cu  Cu18  1  0.25460300  0.26431900  0.12714400  1
  Cu  Cu19  1  0.73568100  0.99028400  0.12714400  1
  Cu  Cu20  1  0.74386800  0.00481900  0.62860200  1
  Cu  Cu21  1  0.25613200  0.99518100  0.37139800  1
  Cu  Cu22  1  0.26431900  0.00971600  0.87285600  1
  Cu  Cu23  1  0.73904900  0.74386800  0.37139800  1
  Cu  Cu24  1  0.74539700  0.73568100  0.87285600  1
  Cu  Cu25  1  0.66666700  0.33333300  0.51209700  1
  Cu  Cu26  1  0.66666700  0.33333300  0.98251100  1
  Cu  Cu27  1  0.66666700  0.33333300  0.25157600  1
  Cu  Cu28  1  0.99028400  0.25460300  0.87285600  1
  Cu  Cu29  1  0.00481900  0.26095100  0.37139800  1
  C  C30  1  0.08165900  0.73426500  0.78993500  1
  C  C31  1  0.07126000  0.73685600  0.29141800  1
  C  C32  1  0.08704900  0.73663600  0.96086700  1
  C  C33  1  0.08147500  0.73434300  0.46063900  1
  C  C34  1  0.09563900  0.52214800  0.37671900  1
  C  C35  1  0.09356900  0.51919400  0.87449500  1
  C  C36  1  0.31758300  0.83887500  0.62416900  1
  C  C37  1  0.31020200  0.84233700  0.12263200  1
  C  C38  1  0.16112500  0.47870800  0.62416900  1
  C  C39  1  0.15766300  0.46786500  0.12263200  1
  C  C40  1  0.42650900  0.90436100  0.37671900  1
  C  C41  1  0.42562400  0.90643100  0.87449500  1
  C  C42  1  0.26573500  0.34739400  0.78993500  1
  C  C43  1  0.26336400  0.35041400  0.96086700  1
  C  C44  1  0.26314400  0.33440400  0.29141800  1
  C  C45  1  0.26565700  0.34713200  0.46063900  1
  C  C46  1  0.52129200  0.68241700  0.62416900  1
  C  C47  1  0.53213500  0.68979800  0.12263200  1
  C  C48  1  0.47785200  0.57349100  0.37671900  1
  C  C49  1  0.48080600  0.57437600  0.87449500  1
  C  C50  1  0.64958600  0.91295100  0.96086700  1
  C  C51  1  0.65286800  0.91852500  0.46063900  1
  C  C52  1  0.65260600  0.91834100  0.78993500  1
  C  C53  1  0.66559600  0.92874000  0.29141800  1
  C  C54  1  0.33440400  0.07126000  0.70858200  1
  C  C55  1  0.35041400  0.08704900  0.03913300  1
  C  C56  1  0.34739400  0.08165900  0.21006500  1
  C  C57  1  0.34713200  0.08147500  0.53936100  1
  C  C58  1  0.52214800  0.42650900  0.62328100  1
  C  C59  1  0.51919400  0.42562400  0.12550500  1
  C  C60  1  0.46786500  0.31020200  0.87736800  1
  C  C61  1  0.47870800  0.31758300  0.37583100  1
  C  C62  1  0.73434300  0.65286800  0.53936100  1
  C  C63  1  0.73685600  0.66559600  0.70858200  1
  C  C64  1  0.73663600  0.64958600  0.03913300  1
  C  C65  1  0.73426500  0.65260600  0.21006500  1
  C  C66  1  0.57437600  0.09356900  0.12550500  1
  C  C67  1  0.57349100  0.09563900  0.62328100  1
  C  C68  1  0.84233700  0.53213500  0.87736800  1
  C  C69  1  0.83887500  0.52129200  0.37583100  1
  C  C70  1  0.68979800  0.15766300  0.87736800  1
  C  C71  1  0.68241700  0.16112500  0.37583100  1
  C  C72  1  0.90436100  0.47785200  0.62328100  1
  C  C73  1  0.90643100  0.48080600  0.12550500  1
  C  C74  1  0.91852500  0.26565700  0.53936100  1
  C  C75  1  0.92874000  0.26314400  0.70858200  1
  C  C76  1  0.91295100  0.26336400  0.03913300  1
  C  C77  1  0.91834100  0.26573500  0.21006500  1
