# generated using pymatgen
data_Cu36Ni12C13
_symmetry_space_group_name_H-M   'P 1'
_cell_length_a   13.62731663
_cell_length_b   13.62731663
_cell_length_c   13.62731663
_cell_angle_alpha   60.00000000
_cell_angle_beta   60.00000000
_cell_angle_gamma   60.00000000
_symmetry_Int_Tables_number   1
_chemical_formula_structural   Cu36Ni12C13
_chemical_formula_sum   'Cu72 Ni24 C26'
_cell_volume   1789.43547529
_cell_formula_units_Z   2
loop_
 _symmetry_equiv_pos_site_id
 _symmetry_equiv_pos_as_xyz
  1  'x, y, z'
loop_
 _atom_site_type_symbol
 _atom_site_label
 _atom_site_symmetry_multiplicity
 _atom_site_fract_x
 _atom_site_fract_y
 _atom_site_fract_z
 _atom_site_occupancy
  C  C0  1  0.25000000  0.25000000  0.25000000  1
  C  C1  1  0.00000000  0.00000000  0.00000000  1
  Ni  Ni2  1  0.87061700  0.77893100  0.62907900  1
  Ni  Ni3  1  0.72137300  0.87061700  0.62907900  1
  Ni  Ni4  1  0.77893100  0.72137300  0.62907900  1
  Ni  Ni5  1  0.47106900  0.37938300  0.62092100  1
  Ni  Ni6  1  0.52862700  0.47106900  0.62092100  1
  Ni  Ni7  1  0.37938300  0.52862700  0.62092100  1
  Ni  Ni8  1  0.62907900  0.72137300  0.87061700  1
  Ni  Ni9  1  0.62907900  0.77893100  0.72137300  1
  Ni  Ni10  1  0.62907900  0.87061700  0.77893100  1
  Ni  Ni11  1  0.62092100  0.52862700  0.47106900  1
  Ni  Ni12  1  0.62092100  0.37938300  0.52862700  1
  Ni  Ni13  1  0.62092100  0.47106900  0.37938300  1
  Ni  Ni14  1  0.72137300  0.62907900  0.77893100  1
  Ni  Ni15  1  0.77893100  0.62907900  0.87061700  1
  Ni  Ni16  1  0.87061700  0.62907900  0.72137300  1
  Ni  Ni17  1  0.52862700  0.62092100  0.37938300  1
  Ni  Ni18  1  0.37938300  0.62092100  0.47106900  1
  Ni  Ni19  1  0.47106900  0.62092100  0.52862700  1
  Ni  Ni20  1  0.77893100  0.87061700  0.72137300  1
  Ni  Ni21  1  0.87061700  0.72137300  0.77893100  1
  Ni  Ni22  1  0.72137300  0.77893100  0.87061700  1
  Ni  Ni23  1  0.37938300  0.47106900  0.52862700  1
  Ni  Ni24  1  0.47106900  0.52862700  0.37938300  1
  Ni  Ni25  1  0.52862700  0.37938300  0.47106900  1
  Cu  Cu26  1  0.06157500  0.15396800  0.42599000  1
  Cu  Cu27  1  0.35846800  0.06157500  0.42599000  1
  Cu  Cu28  1  0.15396800  0.35846800  0.42599000  1
  Cu  Cu29  1  0.09603200  0.18842500  0.82401000  1
  Cu  Cu30  1  0.89153200  0.09603200  0.82401000  1
  Cu  Cu31  1  0.18842500  0.89153200  0.82401000  1
  Cu  Cu32  1  0.42599000  0.35846800  0.06157500  1
  Cu  Cu33  1  0.42599000  0.15396800  0.35846800  1
  Cu  Cu34  1  0.42599000  0.06157500  0.15396800  1
  Cu  Cu35  1  0.82401000  0.89153200  0.09603200  1
  Cu  Cu36  1  0.82401000  0.18842500  0.89153200  1
  Cu  Cu37  1  0.82401000  0.09603200  0.18842500  1
  Cu  Cu38  1  0.35846800  0.42599000  0.15396800  1
  Cu  Cu39  1  0.15396800  0.42599000  0.06157500  1
  Cu  Cu40  1  0.06157500  0.42599000  0.35846800  1
  Cu  Cu41  1  0.89153200  0.82401000  0.18842500  1
  Cu  Cu42  1  0.18842500  0.82401000  0.09603200  1
  Cu  Cu43  1  0.09603200  0.82401000  0.89153200  1
  Cu  Cu44  1  0.15396800  0.06157500  0.35846800  1
  Cu  Cu45  1  0.06157500  0.35846800  0.15396800  1
  Cu  Cu46  1  0.35846800  0.15396800  0.06157500  1
  Cu  Cu47  1  0.18842500  0.09603200  0.89153200  1
  Cu  Cu48  1  0.09603200  0.89153200  0.18842500  1
  Cu  Cu49  1  0.89153200  0.18842500  0.09603200  1
  Cu  Cu50  1  0.15906500  0.35424200  0.61461400  1
  Cu  Cu51  1  0.87207800  0.15906500  0.61461400  1
  Cu  Cu52  1  0.35424200  0.87207800  0.61461400  1
  Cu  Cu53  1  0.89575800  0.09093500  0.63538600  1
  Cu  Cu54  1  0.37792200  0.89575800  0.63538600  1
  Cu  Cu55  1  0.09093500  0.37792200  0.63538600  1
  Cu  Cu56  1  0.61461400  0.87207800  0.15906500  1
  Cu  Cu57  1  0.61461400  0.35424200  0.87207800  1
  Cu  Cu58  1  0.61461400  0.15906500  0.35424200  1
  Cu  Cu59  1  0.63538600  0.37792200  0.89575800  1
  Cu  Cu60  1  0.63538600  0.09093500  0.37792200  1
  Cu  Cu61  1  0.63538600  0.89575800  0.09093500  1
  Cu  Cu62  1  0.87207800  0.61461400  0.35424200  1
  Cu  Cu63  1  0.35424200  0.61461400  0.15906500  1
  Cu  Cu64  1  0.15906500  0.61461400  0.87207800  1
  Cu  Cu65  1  0.37792200  0.63538600  0.09093500  1
  Cu  Cu66  1  0.09093500  0.63538600  0.89575800  1
  Cu  Cu67  1  0.89575800  0.63538600  0.37792200  1
  Cu  Cu68  1  0.35424200  0.15906500  0.87207800  1
  Cu  Cu69  1  0.15906500  0.87207800  0.35424200  1
  Cu  Cu70  1  0.87207800  0.35424200  0.15906500  1
  Cu  Cu71  1  0.09093500  0.89575800  0.37792200  1
  Cu  Cu72  1  0.89575800  0.37792200  0.09093500  1
  Cu  Cu73  1  0.37792200  0.09093500  0.89575800  1
  Cu  Cu74  1  0.95447300  0.80214100  0.54140600  1
  Cu  Cu75  1  0.70198000  0.95447300  0.54140600  1
  Cu  Cu76  1  0.80214100  0.70198000  0.54140600  1
  Cu  Cu77  1  0.44785900  0.29552700  0.70859400  1
  Cu  Cu78  1  0.54802000  0.44785900  0.70859400  1
  Cu  Cu79  1  0.29552700  0.54802000  0.70859400  1
  Cu  Cu80  1  0.54140600  0.70198000  0.95447300  1
  Cu  Cu81  1  0.54140600  0.80214100  0.70198000  1
  Cu  Cu82  1  0.54140600  0.95447300  0.80214100  1
  Cu  Cu83  1  0.70859400  0.54802000  0.44785900  1
  Cu  Cu84  1  0.70859400  0.29552700  0.54802000  1
  Cu  Cu85  1  0.70859400  0.44785900  0.29552700  1
  Cu  Cu86  1  0.70198000  0.54140600  0.80214100  1
  Cu  Cu87  1  0.80214100  0.54140600  0.95447300  1
  Cu  Cu88  1  0.95447300  0.54140600  0.70198000  1
  Cu  Cu89  1  0.54802000  0.70859400  0.29552700  1
  Cu  Cu90  1  0.29552700  0.70859400  0.44785900  1
  Cu  Cu91  1  0.44785900  0.70859400  0.54802000  1
  Cu  Cu92  1  0.80214100  0.95447300  0.70198000  1
  Cu  Cu93  1  0.95447300  0.70198000  0.80214100  1
  Cu  Cu94  1  0.70198000  0.80214100  0.95447300  1
  Cu  Cu95  1  0.29552700  0.44785900  0.54802000  1
  Cu  Cu96  1  0.44785900  0.54802000  0.29552700  1
  Cu  Cu97  1  0.54802000  0.29552700  0.44785900  1
  C  C98  1  0.13817000  0.13817000  0.36183000  1
  C  C99  1  0.36183000  0.13817000  0.36183000  1
  C  C100  1  0.13817000  0.36183000  0.36183000  1
  C  C101  1  0.11183000  0.11183000  0.88817000  1
  C  C102  1  0.88817000  0.11183000  0.88817000  1
  C  C103  1  0.11183000  0.88817000  0.88817000  1
  C  C104  1  0.36183000  0.36183000  0.13817000  1
  C  C105  1  0.36183000  0.13817000  0.13817000  1
  C  C106  1  0.88817000  0.88817000  0.11183000  1
  C  C107  1  0.88817000  0.11183000  0.11183000  1
  C  C108  1  0.13817000  0.36183000  0.13817000  1
  C  C109  1  0.11183000  0.88817000  0.11183000  1
  C  C110  1  0.68623400  0.56376600  0.62500000  1
  C  C111  1  0.12500000  0.68623400  0.62500000  1
  C  C112  1  0.56376600  0.12500000  0.62500000  1
  C  C113  1  0.62500000  0.12500000  0.68623400  1
  C  C114  1  0.62500000  0.56376600  0.12500000  1
  C  C115  1  0.62500000  0.68623400  0.56376600  1
  C  C116  1  0.12500000  0.62500000  0.56376600  1
  C  C117  1  0.56376600  0.62500000  0.68623400  1
  C  C118  1  0.68623400  0.62500000  0.12500000  1
  C  C119  1  0.56376600  0.68623400  0.12500000  1
  C  C120  1  0.68623400  0.12500000  0.56376600  1
  C  C121  1  0.12500000  0.56376600  0.68623400  1
