# generated using pymatgen
data_CuNiC4
_symmetry_space_group_name_H-M   'P 1'
_cell_length_a   5.47604162
_cell_length_b   5.47604162
_cell_length_c   5.47604162
_cell_angle_alpha   107.80027906
_cell_angle_beta   107.80027906
_cell_angle_gamma   112.86742249
_symmetry_Int_Tables_number   1
_chemical_formula_structural   CuNiC4
_chemical_formula_sum   'Cu2 Ni2 C8'
_cell_volume   126.07387346
_cell_formula_units_Z   2
loop_
 _symmetry_equiv_pos_site_id
 _symmetry_equiv_pos_as_xyz
  1  'x, y, z'
loop_
 _atom_site_type_symbol
 _atom_site_label
 _atom_site_symmetry_multiplicity
 _atom_site_fract_x
 _atom_site_fract_y
 _atom_site_fract_z
 _atom_site_occupancy
  Ni  Ni0  1  0.75434700  0.25434700  0.50000000  1
  Ni  Ni1  1  0.50434700  0.50434700  0.00000000  1
  Cu  Cu2  1  0.24425600  0.74425600  0.50000000  1
  Cu  Cu3  1  0.99425600  0.99425600  0.00000000  1
  C  C4  1  0.45702400  0.26553200  0.19149200  1
  C  C5  1  0.92396700  0.73516700  0.18880000  1
  C  C6  1  0.51553200  0.82404000  0.30850800  1
  C  C7  1  0.98516700  0.29636600  0.31120000  1
  C  C8  1  0.98516700  0.67396700  0.68880000  1
  C  C9  1  0.51553200  0.20702400  0.69149200  1
  C  C10  1  0.54636600  0.73516700  0.81120000  1
  C  C11  1  0.07404000  0.26553200  0.80850800  1
