# generated using pymatgen
data_Cu2Ni5C16
_symmetry_space_group_name_H-M   'P 1'
_cell_length_a   8.87294000
_cell_length_b   5.17242000
_cell_length_c   9.76634928
_cell_angle_alpha   80.78655955
_cell_angle_beta   90.00000000
_cell_angle_gamma   90.00000000
_symmetry_Int_Tables_number   1
_chemical_formula_structural   Cu2Ni5C16
_chemical_formula_sum   'Cu4 Ni10 C32'
_cell_volume   442.43978611
_cell_formula_units_Z   2
loop_
 _symmetry_equiv_pos_site_id
 _symmetry_equiv_pos_as_xyz
  1  'x, y, z'
loop_
 _atom_site_type_symbol
 _atom_site_label
 _atom_site_symmetry_multiplicity
 _atom_site_fract_x
 _atom_site_fract_y
 _atom_site_fract_z
 _atom_site_occupancy
  C  C0  1  0.90630500  0.00822800  0.74532900  1
  C  C1  1  0.91588700  0.48713400  0.25676400  1
  C  C2  1  0.58371300  0.75956600  0.50297600  1
  C  C3  1  0.58966800  0.50177500  0.25538700  1
  C  C4  1  0.40630500  0.99177200  0.25467100  1
  C  C5  1  0.41588700  0.51286600  0.74323600  1
  C  C6  1  0.08371300  0.24043400  0.49702400  1
  C  C7  1  0.08966800  0.49822500  0.74461300  1
  Ni  Ni8  1  0.91841400  0.25457200  0.00232700  1
  Ni  Ni9  1  0.92187200  0.74747900  0.49674100  1
  Ni  Ni10  1  0.75145100  0.99199300  0.25598100  1
  Ni  Ni11  1  0.58024200  0.24107500  0.99621100  1
  Ni  Ni12  1  0.74286000  0.51153500  0.74012900  1
  Ni  Ni13  1  0.42187200  0.25252100  0.50325900  1
  Ni  Ni14  1  0.41841400  0.74542800  0.99767300  1
  Ni  Ni15  1  0.25145100  0.00800700  0.74401900  1
  Ni  Ni16  1  0.24286000  0.48846500  0.25987100  1
  Ni  Ni17  1  0.08024200  0.75892500  0.00378900  1
  Cu  Cu18  1  0.74851600  0.24527800  0.50379500  1
  Cu  Cu19  1  0.74685700  0.75384300  0.99352500  1
  Cu  Cu20  1  0.24685700  0.24615700  0.00647500  1
  Cu  Cu21  1  0.24851600  0.75472200  0.49620500  1
  C  C22  1  0.89647000  0.12187900  0.38781100  1
  C  C23  1  0.90833900  0.88963900  0.11347900  1
  C  C24  1  0.75395200  0.14867300  0.88018600  1
  C  C25  1  0.76748700  0.85375300  0.62352700  1
  C  C26  1  0.91577100  0.61276400  0.87978800  1
  C  C27  1  0.90056400  0.37724000  0.61783500  1
  C  C28  1  0.76172400  0.64358500  0.36810600  1
  C  C29  1  0.59609500  0.13695000  0.38406500  1
  C  C30  1  0.58357900  0.88481500  0.12008000  1
  C  C31  1  0.74815400  0.35548100  0.12283000  1
  C  C32  1  0.58192500  0.59837700  0.88076500  1
  C  C33  1  0.40833900  0.11036100  0.88652100  1
  C  C34  1  0.59531600  0.38394000  0.60954900  1
  C  C35  1  0.39647000  0.87812100  0.61218900  1
  C  C36  1  0.26748700  0.14624700  0.37647300  1
  C  C37  1  0.40056400  0.62276000  0.38216500  1
  C  C38  1  0.41577100  0.38723600  0.12021200  1
  C  C39  1  0.25395200  0.85132700  0.11981400  1
  C  C40  1  0.24815400  0.64451900  0.87717000  1
  C  C41  1  0.08357900  0.11518500  0.87992000  1
  C  C42  1  0.09609500  0.86305000  0.61593500  1
  C  C43  1  0.26172400  0.35641500  0.63189400  1
  C  C44  1  0.09531600  0.61606000  0.39045100  1
  C  C45  1  0.08192500  0.40162300  0.11923500  1
