# generated using pymatgen
data_Cu3Ni5C16
_symmetry_space_group_name_H-M   'P 1'
_cell_length_a   5.83421936
_cell_length_b   5.84465808
_cell_length_c   19.35827489
_cell_angle_alpha   98.67147496
_cell_angle_beta   89.92465965
_cell_angle_gamma   119.98733869
_symmetry_Int_Tables_number   1
_chemical_formula_structural   Cu3Ni5C16
_chemical_formula_sum   'Cu6 Ni10 C32'
_cell_volume   563.08214182
_cell_formula_units_Z   2
loop_
 _symmetry_equiv_pos_site_id
 _symmetry_equiv_pos_as_xyz
  1  'x, y, z'
loop_
 _atom_site_type_symbol
 _atom_site_label
 _atom_site_symmetry_multiplicity
 _atom_site_fract_x
 _atom_site_fract_y
 _atom_site_fract_z
 _atom_site_occupancy
  Ni  Ni0  1  0.12496700  0.74994800  0.37501100  1
  Ni  Ni1  1  0.37490700  0.24990700  0.12495200  1
  Ni  Ni2  1  0.50008500  0.00019300  0.00001300  1
  Ni  Ni3  1  0.24993400  0.50017400  0.24974800  1
  Ni  Ni4  1  0.87506500  0.25002700  0.12497300  1
  Ni  Ni5  1  0.99994300  0.99959600  0.50025600  1
  Ni  Ni6  1  0.37420600  0.24895300  0.62491800  1
  Ni  Ni7  1  0.12580300  0.75113100  0.87508100  1
  Ni  Ni8  1  0.87481700  0.24904500  0.62494300  1
  Ni  Ni9  1  0.62525400  0.75111400  0.87508100  1
  Cu  Cu10  1  0.37492700  0.75017700  0.12493100  1
  Cu  Cu11  1  0.62500300  0.74989800  0.37501300  1
  Cu  Cu12  1  0.12501300  0.25002000  0.37505400  1
  Cu  Cu13  1  0.87496000  0.74960300  0.62481800  1
  Cu  Cu14  1  0.74994700  0.49992500  0.75000700  1
  Cu  Cu15  1  0.62520200  0.25029300  0.87524300  1
  C  C16  1  0.22950700  0.89912300  0.06618600  1
  C  C17  1  0.66950300  0.89928000  0.06608000  1
  C  C18  1  0.19113900  0.38180500  0.07390900  1
  C  C19  1  0.08006900  0.60068400  0.18366900  1
  C  C20  1  0.52038600  0.60091500  0.18367200  1
  C  C21  1  0.08085300  0.16255800  0.18362000  1
  C  C22  1  0.66867900  0.33700300  0.06620200  1
  C  C23  1  0.41627100  0.83548000  0.31570700  1
  C  C24  1  0.16921800  0.89847000  0.56629800  1
  C  C25  1  0.41716800  0.39809100  0.31585600  1
  C  C26  1  0.55889400  0.11823100  0.17604100  1
  C  C27  1  0.30847800  0.61843700  0.42583600  1
  C  C28  1  0.94150100  0.88155800  0.32423200  1
  C  C29  1  0.83366400  0.66431200  0.43428400  1
  C  C30  1  0.01945100  0.59922000  0.68343900  1
  C  C31  1  0.27034300  0.10037600  0.43379200  1
  C  C32  1  0.97964400  0.39946100  0.31627500  1
  C  C33  1  0.72949100  0.89834700  0.56628300  1
  C  C34  1  0.16895800  0.33705200  0.56616600  1
  C  C35  1  0.05900300  0.11853200  0.67620200  1
  C  C36  1  0.57994400  0.59920600  0.68352700  1
  C  C37  1  0.69098600  0.38148400  0.57406700  1
  C  C38  1  0.44116100  0.88183700  0.82383300  1
  C  C39  1  0.83271300  0.10173800  0.43420900  1
  C  C40  1  0.33143000  0.66338300  0.93394900  1
  C  C41  1  0.58027100  0.16094300  0.68283200  1
  C  C42  1  0.48054600  0.40079800  0.81654900  1
  C  C43  1  0.91983600  0.83923100  0.81721000  1
  C  C44  1  0.80887000  0.61821700  0.92586800  1
  C  C45  1  0.92030800  0.40098400  0.81645600  1
  C  C46  1  0.33120500  0.10152000  0.93390000  1
  C  C47  1  0.77047500  0.10172000  0.93380400  1
