# generated using pymatgen
data_Cu(NiC4)3
_symmetry_space_group_name_H-M   'P 1'
_cell_length_a   5.03507300
_cell_length_b   11.91602400
_cell_length_c   15.87450300
_cell_angle_alpha   90.00000000
_cell_angle_beta   90.00000000
_cell_angle_gamma   90.00000000
_symmetry_Int_Tables_number   1
_chemical_formula_structural   Cu(NiC4)3
_chemical_formula_sum   'Cu4 Ni12 C48'
_cell_volume   952.43923599
_cell_formula_units_Z   4
loop_
 _symmetry_equiv_pos_site_id
 _symmetry_equiv_pos_as_xyz
  1  'x, y, z'
loop_
 _atom_site_type_symbol
 _atom_site_label
 _atom_site_symmetry_multiplicity
 _atom_site_fract_x
 _atom_site_fract_y
 _atom_site_fract_z
 _atom_site_occupancy
  C  C0  1  0.97241500  0.11318800  0.99972900  1
  C  C1  1  0.02758500  0.88681200  0.49972900  1
  C  C2  1  0.97241500  0.38681200  0.49972900  1
  C  C3  1  0.02758500  0.61318800  0.99972900  1
  C  C4  1  0.00089600  0.68100500  0.73422800  1
  C  C5  1  0.99910400  0.31899500  0.23422800  1
  C  C6  1  0.00089600  0.81899500  0.23422800  1
  C  C7  1  0.99910400  0.18100500  0.73422800  1
  Ni  Ni8  1  0.50084100  0.74044800  0.34794500  1
  Ni  Ni9  1  0.49915900  0.25955200  0.84794500  1
  Ni  Ni10  1  0.50084100  0.75955200  0.84794500  1
  Ni  Ni11  1  0.49915900  0.24044800  0.34794500  1
  Ni  Ni12  1  0.75859500  0.56933100  0.23815800  1
  Ni  Ni13  1  0.24140500  0.43066900  0.73815800  1
  Ni  Ni14  1  0.75859500  0.93066900  0.73815800  1
  Ni  Ni15  1  0.24140500  0.06933100  0.23815800  1
  Ni  Ni16  1  0.49515400  0.40381700  0.12430900  1
  Ni  Ni17  1  0.50484600  0.59618300  0.62430900  1
  Ni  Ni18  1  0.49515400  0.09618300  0.62430900  1
  Ni  Ni19  1  0.50484600  0.90381700  0.12430900  1
  Cu  Cu20  1  0.49532100  0.86047300  0.98677400  1
  Cu  Cu21  1  0.50467900  0.13952700  0.48677400  1
  Cu  Cu22  1  0.49532100  0.63952700  0.48677400  1
  Cu  Cu23  1  0.50467900  0.36047300  0.98677400  1
  C  C24  1  0.31652100  0.81550000  0.15871100  1
  C  C25  1  0.68347900  0.18450000  0.65871100  1
  C  C26  1  0.31652100  0.68450000  0.65871100  1
  C  C27  1  0.68347900  0.31550000  0.15871100  1
  C  C28  1  0.79941700  0.87968000  0.13604000  1
  C  C29  1  0.20058300  0.12032000  0.63604000  1
  C  C30  1  0.79941700  0.62032000  0.63604000  1
  C  C31  1  0.20058300  0.37968000  0.13604000  1
  C  C32  1  0.91133000  0.66360800  0.19647700  1
  C  C33  1  0.08867000  0.33639200  0.69647700  1
  C  C34  1  0.91133000  0.83639200  0.69647700  1
  C  C35  1  0.08867000  0.16360800  0.19647700  1
  C  C36  1  0.55006400  0.76858300  0.94273700  1
  C  C37  1  0.44993600  0.23141700  0.44273700  1
  C  C38  1  0.55006400  0.73141700  0.44273700  1
  C  C39  1  0.44993600  0.26858300  0.94273700  1
  C  C40  1  0.45237900  0.93227000  0.02973100  1
  C  C41  1  0.54762100  0.06773000  0.52973100  1
  C  C42  1  0.45237900  0.56773000  0.52973100  1
  C  C43  1  0.54762100  0.43227000  0.02973100  1
  C  C44  1  0.57247600  0.61483600  0.31110200  1
  C  C45  1  0.42752400  0.38516400  0.81110200  1
  C  C46  1  0.57247600  0.88516400  0.81110200  1
  C  C47  1  0.42752400  0.11483600  0.31110200  1
  C  C48  1  0.91631200  0.47352800  0.27411700  1
  C  C49  1  0.08368800  0.52647200  0.77411700  1
  C  C50  1  0.91631200  0.02647200  0.77411700  1
  C  C51  1  0.08368800  0.97352800  0.27411700  1
  C  C52  1  0.68286800  0.82638100  0.30668800  1
  C  C53  1  0.31713200  0.17361900  0.80668800  1
  C  C54  1  0.68286800  0.67361900  0.80668800  1
  C  C55  1  0.31713200  0.32638100  0.30668800  1
  C  C56  1  0.20539700  0.74205100  0.83013800  1
  C  C57  1  0.79460300  0.25794900  0.33013800  1
  C  C58  1  0.20539700  0.75794900  0.33013800  1
  C  C59  1  0.79460300  0.24205100  0.83013800  1
  C  C60  1  0.44621000  0.02493700  0.16805500  1
  C  C61  1  0.55379000  0.97506300  0.66805500  1
  C  C62  1  0.44621000  0.47506300  0.66805500  1
  C  C63  1  0.55379000  0.52493700  0.16805500  1
