# generated using pymatgen
data_Cu6Ni2C9
_symmetry_space_group_name_H-M   'P 1'
_cell_length_a   5.93892755
_cell_length_b   5.93892755
_cell_length_c   9.62094100
_cell_angle_alpha   90.00000000
_cell_angle_beta   90.00000000
_cell_angle_gamma   119.99999499
_symmetry_Int_Tables_number   1
_chemical_formula_structural   Cu6Ni2C9
_chemical_formula_sum   'Cu12 Ni4 C18'
_cell_volume   293.87609448
_cell_formula_units_Z   2
loop_
 _symmetry_equiv_pos_site_id
 _symmetry_equiv_pos_as_xyz
  1  'x, y, z'
loop_
 _atom_site_type_symbol
 _atom_site_label
 _atom_site_symmetry_multiplicity
 _atom_site_fract_x
 _atom_site_fract_y
 _atom_site_fract_z
 _atom_site_occupancy
  C  C0  1  0.33333300  0.66666700  0.24813400  1
  C  C1  1  0.66666700  0.33333300  0.74813400  1
  C  C2  1  0.09461500  0.90538500  0.54641300  1
  C  C3  1  0.14443900  0.57221900  0.90471500  1
  C  C4  1  0.00000000  0.00000000  0.18825900  1
  C  C5  1  0.00000000  0.00000000  0.68825900  1
  C  C6  1  0.09461500  0.18923000  0.54641300  1
  C  C7  1  0.33333300  0.66666700  0.76289700  1
  C  C8  1  0.42778100  0.85556100  0.90471500  1
  C  C9  1  0.18923000  0.09461500  0.04641300  1
  C  C10  1  0.42778100  0.57221900  0.90471500  1
  C  C11  1  0.57221900  0.42778100  0.40471500  1
  C  C12  1  0.81077000  0.90538500  0.54641300  1
  C  C13  1  0.90538500  0.81077000  0.04641300  1
  C  C14  1  0.57221900  0.14443900  0.40471500  1
  C  C15  1  0.66666700  0.33333300  0.26289700  1
  C  C16  1  0.85556100  0.42778100  0.40471500  1
  C  C17  1  0.90538500  0.09461500  0.04641300  1
  Ni  Ni18  1  0.00000000  0.00000000  0.08126600  1
  Ni  Ni19  1  0.00000000  0.00000000  0.58126600  1
  Ni  Ni20  1  0.33333300  0.66666700  0.86976400  1
  Ni  Ni21  1  0.66666700  0.33333300  0.36976400  1
  Cu  Cu22  1  0.19636600  0.80363400  0.35265000  1
  Cu  Cu23  1  0.05967700  0.52983900  0.14607700  1
  Cu  Cu24  1  0.47016100  0.94032300  0.14607700  1
  Cu  Cu25  1  0.19636600  0.39273200  0.35265000  1
  Cu  Cu26  1  0.47016100  0.52983900  0.14607700  1
  Cu  Cu27  1  0.60726800  0.80363400  0.35265000  1
  Cu  Cu28  1  0.39273200  0.19636600  0.85265000  1
  Cu  Cu29  1  0.52983900  0.47016100  0.64607700  1
  Cu  Cu30  1  0.80363400  0.60726800  0.85265000  1
  Cu  Cu31  1  0.52983900  0.05967700  0.64607700  1
  Cu  Cu32  1  0.94032300  0.47016100  0.64607700  1
  Cu  Cu33  1  0.80363400  0.19636600  0.85265000  1
