# generated using pymatgen
data_CuNiC5
_symmetry_space_group_name_H-M   'P 1'
_cell_length_a   10.34426400
_cell_length_b   5.10460500
_cell_length_c   8.42195776
_cell_angle_alpha   53.33519441
_cell_angle_beta   90.00000000
_cell_angle_gamma   90.00000000
_symmetry_Int_Tables_number   1
_chemical_formula_structural   CuNiC5
_chemical_formula_sum   'Cu4 Ni4 C20'
_cell_volume   356.71910649
_cell_formula_units_Z   4
loop_
 _symmetry_equiv_pos_site_id
 _symmetry_equiv_pos_as_xyz
  1  'x, y, z'
loop_
 _atom_site_type_symbol
 _atom_site_label
 _atom_site_symmetry_multiplicity
 _atom_site_fract_x
 _atom_site_fract_y
 _atom_site_fract_z
 _atom_site_occupancy
  C  C0  1  0.15241400  0.80491600  0.50762200  1
  C  C1  1  0.65241400  0.19508400  0.99237800  1
  C  C2  1  0.34758600  0.80491600  0.00762200  1
  C  C3  1  0.84758600  0.19508400  0.49237800  1
  Ni  Ni4  1  0.16575200  0.30498200  0.00923600  1
  Ni  Ni5  1  0.66575200  0.69501800  0.49076400  1
  Ni  Ni6  1  0.33424800  0.30498200  0.50923600  1
  Ni  Ni7  1  0.83424800  0.69501800  0.99076400  1
  Cu  Cu8  1  0.40828700  0.04776800  0.26414500  1
  Cu  Cu9  1  0.90828700  0.95223200  0.23585500  1
  Cu  Cu10  1  0.09171300  0.04776800  0.76414500  1
  Cu  Cu11  1  0.59171300  0.95223200  0.73585500  1
  C  C12  1  0.61640500  0.64309600  0.72552700  1
  C  C13  1  0.83567000  0.27753000  0.04357400  1
  C  C14  1  0.83739000  0.86551900  0.43739000  1
  C  C15  1  0.06312300  0.01780200  0.24048700  1
  C  C16  1  0.56312300  0.98219800  0.25951300  1
  C  C17  1  0.33739000  0.13448100  0.06261000  1
  C  C18  1  0.33567000  0.72247000  0.45642600  1
  C  C19  1  0.11640500  0.35690400  0.77447300  1
  C  C20  1  0.88359500  0.64309600  0.22552700  1
  C  C21  1  0.66433000  0.27753000  0.54357400  1
  C  C22  1  0.66261000  0.86551900  0.93739000  1
  C  C23  1  0.43687700  0.01780200  0.74048700  1
  C  C24  1  0.93687700  0.98219800  0.75951300  1
  C  C25  1  0.16261000  0.13448100  0.56261000  1
  C  C26  1  0.16433000  0.72247000  0.95642600  1
  C  C27  1  0.38359500  0.35690400  0.27447300  1
