# generated using pymatgen
data_Cu2Ni3C23
_symmetry_space_group_name_H-M   'P 1'
_cell_length_a   6.09590917
_cell_length_b   6.09590917
_cell_length_c   9.85675949
_cell_angle_alpha   89.66128674
_cell_angle_beta   89.66128674
_cell_angle_gamma   60.36174730
_symmetry_Int_Tables_number   1
_chemical_formula_structural   Cu2Ni3C23
_chemical_formula_sum   'Cu2 Ni3 C23'
_cell_volume   318.34877936
_cell_formula_units_Z   1
loop_
 _symmetry_equiv_pos_site_id
 _symmetry_equiv_pos_as_xyz
  1  'x, y, z'
loop_
 _atom_site_type_symbol
 _atom_site_label
 _atom_site_symmetry_multiplicity
 _atom_site_fract_x
 _atom_site_fract_y
 _atom_site_fract_z
 _atom_site_occupancy
  C  C0  1  0.67091000  0.67091000  0.90012800  1
  C  C1  1  0.00985200  0.00985200  0.00567200  1
  C  C2  1  0.01135900  0.01135900  0.49059300  1
  C  C3  1  0.33601800  0.33601800  0.37288900  1
  Ni  Ni4  1  0.83065500  0.33731500  0.21516700  1
  Ni  Ni5  1  0.33731500  0.83065500  0.21516700  1
  Ni  Ni6  1  0.16798400  0.16798400  0.71584000  1
  Cu  Cu7  1  0.65377100  0.65377100  0.47594300  1
  Cu  Cu8  1  0.32708400  0.32708400  0.01791600  1
  C  C9  1  0.82974600  0.82974600  0.21524400  1
  C  C10  1  0.66224600  0.16781000  0.71571000  1
  C  C11  1  0.16781000  0.66224600  0.71571000  1
  C  C12  1  0.83805200  0.31085400  0.60627600  1
  C  C13  1  0.51731500  0.51731500  0.33118400  1
  C  C14  1  0.66724000  0.66724000  0.10531000  1
  C  C15  1  0.99847600  0.99847600  0.31150300  1
  C  C16  1  0.99980000  0.99980000  0.81971500  1
  C  C17  1  0.31085400  0.83805200  0.60627600  1
  C  C18  1  0.96628500  0.51932600  0.33436600  1
  C  C19  1  0.51932600  0.96628500  0.33436600  1
  C  C20  1  0.15918600  0.15918600  0.10614500  1
  C  C21  1  0.84436700  0.84436700  0.60266800  1
  C  C22  1  0.48740800  0.03205600  0.82820100  1
  C  C23  1  0.03205600  0.48740800  0.82820100  1
  C  C24  1  0.33313800  0.33313800  0.60304600  1
  C  C25  1  0.68537400  0.15204300  0.10175400  1
  C  C26  1  0.48687900  0.48687900  0.83085400  1
  C  C27  1  0.15204300  0.68537400  0.10175400  1
