# generated using pymatgen
data_CuNiC6
_symmetry_space_group_name_H-M   'P 1'
_cell_length_a   5.03872025
_cell_length_b   8.72560412
_cell_length_c   11.53360430
_cell_angle_alpha   89.96924009
_cell_angle_beta   90.00234763
_cell_angle_gamma   90.01633056
_symmetry_Int_Tables_number   1
_chemical_formula_structural   CuNiC6
_chemical_formula_sum   'Cu6 Ni6 C36'
_cell_volume   507.08494695
_cell_formula_units_Z   6
loop_
 _symmetry_equiv_pos_site_id
 _symmetry_equiv_pos_as_xyz
  1  'x, y, z'
loop_
 _atom_site_type_symbol
 _atom_site_label
 _atom_site_symmetry_multiplicity
 _atom_site_fract_x
 _atom_site_fract_y
 _atom_site_fract_z
 _atom_site_occupancy
  C  C0  1  0.60476000  0.27631400  0.58606900  1
  C  C1  1  0.10496000  0.77665100  0.58586500  1
  C  C2  1  0.28267600  0.16372200  0.91907100  1
  C  C3  1  0.78301000  0.66458300  0.91899400  1
  C  C4  1  0.61251800  0.05909700  0.25250800  1
  C  C5  1  0.11227700  0.55943200  0.25277700  1
  C  C6  1  0.28268400  0.83625800  0.08084600  1
  C  C7  1  0.78295900  0.33541400  0.08094600  1
  C  C8  1  0.61251400  0.94088100  0.74750800  1
  C  C9  1  0.11215800  0.44059300  0.74726200  1
  C  C10  1  0.60483900  0.72371800  0.41397600  1
  C  C11  1  0.10500300  0.22335700  0.41413600  1
  Ni  Ni12  1  0.73038100  0.72971500  0.16621900  1
  Ni  Ni13  1  0.53869600  0.00004300  0.50004300  1
  Ni  Ni14  1  0.73045300  0.27013200  0.83371500  1
  Ni  Ni15  1  0.23131200  0.23065200  0.16638800  1
  Ni  Ni16  1  0.03803100  0.50000900  0.50003700  1
  Ni  Ni17  1  0.23139400  0.76928500  0.83349800  1
  Cu  Cu18  1  0.09360400  0.09363700  0.66667100  1
  Cu  Cu19  1  0.59351000  0.59365900  0.66639400  1
  Cu  Cu20  1  0.09354300  0.90644800  0.33324600  1
  Cu  Cu21  1  0.59348800  0.40637800  0.33353500  1
  Cu  Cu22  1  0.81297100  0.99993600  0.00007900  1
  Cu  Cu23  1  0.31217700  0.49995600  0.00007500  1
  C  C24  1  0.50393700  0.35432900  0.96190000  1
  C  C25  1  0.00495300  0.85470000  0.96134400  1
  C  C26  1  0.21590500  0.07497400  0.29467900  1
  C  C27  1  0.71619300  0.57491200  0.29506300  1
  C  C28  1  0.21586700  0.92508600  0.70527100  1
  C  C29  1  0.71603500  0.42510200  0.70495800  1
  C  C30  1  0.77992600  0.07019300  0.62811200  1
  C  C31  1  0.27973200  0.57026800  0.62804800  1
  C  C32  1  0.78002200  0.92989000  0.37194300  1
  C  C33  1  0.27987000  0.42980500  0.37199500  1
  C  C34  1  0.50406600  0.64562300  0.03811500  1
  C  C35  1  0.00497200  0.14528800  0.03863100  1
  C  C36  1  0.27426500  0.15959800  0.55773500  1
  C  C37  1  0.77420600  0.65971300  0.55756200  1
  C  C38  1  0.60197000  0.28332100  0.22452500  1
  C  C39  1  0.10172500  0.78328700  0.22424400  1
  C  C40  1  0.62392500  0.05742600  0.89103600  1
  C  C41  1  0.12320800  0.55702000  0.89091200  1
  C  C42  1  0.62397700  0.94244900  0.10904800  1
  C  C43  1  0.12320700  0.44290700  0.10915900  1
  C  C44  1  0.27419800  0.84046900  0.44217900  1
  C  C45  1  0.77412500  0.34028400  0.44237600  1
  C  C46  1  0.60202600  0.71671500  0.77548600  1
  C  C47  1  0.10177500  0.21677200  0.77575500  1
