# generated using pymatgen
data_Cu12NiC20
_symmetry_space_group_name_H-M   'P 1'
_cell_length_a   8.75958022
_cell_length_b   8.75958022
_cell_length_c   8.75958022
_cell_angle_alpha   109.47122063
_cell_angle_beta   109.47122063
_cell_angle_gamma   109.47122063
_symmetry_Int_Tables_number   1
_chemical_formula_structural   Cu12NiC20
_chemical_formula_sum   'Cu12 Ni1 C20'
_cell_volume   517.40186817
_cell_formula_units_Z   1
loop_
 _symmetry_equiv_pos_site_id
 _symmetry_equiv_pos_as_xyz
  1  'x, y, z'
loop_
 _atom_site_type_symbol
 _atom_site_label
 _atom_site_symmetry_multiplicity
 _atom_site_fract_x
 _atom_site_fract_y
 _atom_site_fract_z
 _atom_site_occupancy
  Ni  Ni0  1  0.00000000  0.00000000  0.00000000  1
  Cu  Cu1  1  0.16304900  0.30408900  0.48700200  1
  Cu  Cu2  1  0.14103900  0.83695100  0.32395300  1
  Cu  Cu3  1  0.18291300  0.69591100  0.85896100  1
  Cu  Cu4  1  0.30408900  0.48700200  0.16304900  1
  Cu  Cu5  1  0.51299800  0.81708700  0.67604700  1
  Cu  Cu6  1  0.32395300  0.14103900  0.83695100  1
  Cu  Cu7  1  0.69591100  0.85896100  0.18291300  1
  Cu  Cu8  1  0.48700200  0.16304900  0.30408900  1
  Cu  Cu9  1  0.67604700  0.51299800  0.81708700  1
  Cu  Cu10  1  0.83695100  0.32395300  0.14103900  1
  Cu  Cu11  1  0.85896100  0.18291300  0.69591100  1
  Cu  Cu12  1  0.81708700  0.67604700  0.51299800  1
  C  C13  1  0.12074500  0.35994700  0.73992200  1
  C  C14  1  0.26007800  0.62002500  0.38082300  1
  C  C15  1  0.00000000  0.40032100  0.00000000  1
  C  C16  1  0.00000000  0.00000000  0.40032100  1
  C  C17  1  0.23920200  0.87925500  0.61917700  1
  C  C18  1  0.37997500  0.64005300  0.76079800  1
  C  C19  1  0.00000000  0.80530400  0.00000000  1
  C  C20  1  0.00000000  0.00000000  0.80530400  1
  C  C21  1  0.35994700  0.73992200  0.12074500  1
  C  C22  1  0.38082300  0.26007800  0.62002500  1
  C  C23  1  0.40032100  0.00000000  0.00000000  1
  C  C24  1  0.19469600  0.19469600  0.19469600  1
  C  C25  1  0.61917700  0.23920200  0.87925500  1
  C  C26  1  0.64005300  0.76079800  0.37997500  1
  C  C27  1  0.80530400  0.00000000  0.00000000  1
  C  C28  1  0.73992200  0.12074500  0.35994700  1
  C  C29  1  0.62002500  0.38082300  0.26007800  1
  C  C30  1  0.87925500  0.61917700  0.23920200  1
  C  C31  1  0.76079800  0.37997500  0.64005300  1
  C  C32  1  0.59967900  0.59967900  0.59967900  1
