# generated using pymatgen
data_Cu3Ni3C7
_symmetry_space_group_name_H-M   'P 1'
_cell_length_a   8.76791300
_cell_length_b   6.77343400
_cell_length_c   9.96731939
_cell_angle_alpha   77.58211633
_cell_angle_beta   90.00000000
_cell_angle_gamma   90.00000000
_symmetry_Int_Tables_number   1
_chemical_formula_structural   Cu3Ni3C7
_chemical_formula_sum   'Cu12 Ni12 C28'
_cell_volume   578.09943503
_cell_formula_units_Z   4
loop_
 _symmetry_equiv_pos_site_id
 _symmetry_equiv_pos_as_xyz
  1  'x, y, z'
loop_
 _atom_site_type_symbol
 _atom_site_label
 _atom_site_symmetry_multiplicity
 _atom_site_fract_x
 _atom_site_fract_y
 _atom_site_fract_z
 _atom_site_occupancy
  C  C0  1  0.08180900  0.06264900  0.83348100  1
  C  C1  1  0.58180900  0.93735100  0.66651900  1
  C  C2  1  0.91819100  0.93735100  0.16651900  1
  C  C3  1  0.41819100  0.06264900  0.33348100  1
  Ni  Ni4  1  0.16699500  0.30637100  0.61486900  1
  Ni  Ni5  1  0.66699500  0.69362900  0.88513100  1
  Ni  Ni6  1  0.83300500  0.69362900  0.38513100  1
  Ni  Ni7  1  0.33300500  0.30637100  0.11486900  1
  Ni  Ni8  1  0.97888500  0.31269000  0.63240100  1
  Ni  Ni9  1  0.47888500  0.68731000  0.86759900  1
  Ni  Ni10  1  0.02111500  0.68731000  0.36759900  1
  Ni  Ni11  1  0.52111500  0.31269000  0.13240100  1
  Ni  Ni12  1  0.08997700  0.43405000  0.72158200  1
  Ni  Ni13  1  0.58997700  0.56595000  0.77841800  1
  Ni  Ni14  1  0.91002300  0.56595000  0.27841800  1
  Ni  Ni15  1  0.41002300  0.43405000  0.22158200  1
  Cu  Cu16  1  0.08026000  0.30562500  0.68407000  1
  Cu  Cu17  1  0.58026000  0.69437500  0.81593000  1
  Cu  Cu18  1  0.91974000  0.69437500  0.31593000  1
  Cu  Cu19  1  0.41974000  0.30562500  0.18407000  1
  Cu  Cu20  1  0.85305700  0.33415700  0.99403100  1
  Cu  Cu21  1  0.35305700  0.66584300  0.50596900  1
  Cu  Cu22  1  0.14694300  0.66584300  0.00596900  1
  Cu  Cu23  1  0.64694300  0.33415700  0.49403100  1
  Cu  Cu24  1  0.40121600  0.12792400  0.84348800  1
  Cu  Cu25  1  0.90121600  0.87207600  0.65651200  1
  Cu  Cu26  1  0.59878400  0.87207600  0.15651200  1
  Cu  Cu27  1  0.09878400  0.12792400  0.34348800  1
  C  C28  1  0.93292100  0.16587800  0.00415400  1
  C  C29  1  0.43292100  0.83412200  0.49584600  1
  C  C30  1  0.06707900  0.83412200  0.99584600  1
  C  C31  1  0.56707900  0.16587800  0.50415400  1
  C  C32  1  0.87009500  0.46679800  0.88770600  1
  C  C33  1  0.37009500  0.53320200  0.61229400  1
  C  C34  1  0.12990500  0.53320200  0.11229400  1
  C  C35  1  0.62990500  0.46679800  0.38770600  1
  C  C36  1  0.76735700  0.34958500  0.09097600  1
  C  C37  1  0.26735700  0.65041500  0.40902400  1
  C  C38  1  0.23264300  0.65041500  0.90902400  1
  C  C39  1  0.73264300  0.34958500  0.59097600  1
  C  C40  1  0.38500500  0.04086400  0.74164900  1
  C  C41  1  0.88500500  0.95913600  0.75835100  1
  C  C42  1  0.61499500  0.95913600  0.25835100  1
  C  C43  1  0.11499500  0.04086400  0.24164900  1
  C  C44  1  0.27960000  0.15575800  0.90915100  1
  C  C45  1  0.77960000  0.84424200  0.59084900  1
  C  C46  1  0.72040000  0.84424200  0.09084900  1
  C  C47  1  0.22040000  0.15575800  0.40915100  1
  C  C48  1  0.52695500  0.18196800  0.87844100  1
  C  C49  1  0.02695500  0.81803200  0.62155900  1
  C  C50  1  0.47304500  0.81803200  0.12155900  1
  C  C51  1  0.97304500  0.18196800  0.37844100  1
