# generated using pymatgen
data_Cu(Ni2C3)2
_symmetry_space_group_name_H-M   'P 1'
_cell_length_a   11.71126200
_cell_length_b   5.71633100
_cell_length_c   8.74091623
_cell_angle_alpha   61.57704152
_cell_angle_beta   90.00000000
_cell_angle_gamma   90.00000000
_symmetry_Int_Tables_number   1
_chemical_formula_structural   Cu(Ni2C3)2
_chemical_formula_sum   'Cu4 Ni16 C24'
_cell_volume   514.62761568
_cell_formula_units_Z   4
loop_
 _symmetry_equiv_pos_site_id
 _symmetry_equiv_pos_as_xyz
  1  'x, y, z'
loop_
 _atom_site_type_symbol
 _atom_site_label
 _atom_site_symmetry_multiplicity
 _atom_site_fract_x
 _atom_site_fract_y
 _atom_site_fract_z
 _atom_site_occupancy
  C  C0  1  0.06553600  0.29124800  0.93555900  1
  C  C1  1  0.56553600  0.70875200  0.56444100  1
  C  C2  1  0.43446400  0.29124800  0.43555900  1
  C  C3  1  0.93446400  0.70875200  0.06444100  1
  Ni  Ni4  1  0.89882200  0.22609500  0.68141400  1
  Ni  Ni5  1  0.18623900  0.39683000  0.63543700  1
  Ni  Ni6  1  0.08465500  0.58929800  0.59149800  1
  Ni  Ni7  1  0.56244100  0.97177100  0.17570900  1
  Ni  Ni8  1  0.58465500  0.41070200  0.90850200  1
  Ni  Ni9  1  0.68623900  0.60317000  0.86456300  1
  Ni  Ni10  1  0.39882200  0.77390500  0.81858600  1
  Ni  Ni11  1  0.06244100  0.02822900  0.32429100  1
  Ni  Ni12  1  0.93755900  0.97177100  0.67570900  1
  Ni  Ni13  1  0.60117800  0.22609500  0.18141400  1
  Ni  Ni14  1  0.31376100  0.39683000  0.13543700  1
  Ni  Ni15  1  0.41534500  0.58929800  0.09149800  1
  Ni  Ni16  1  0.43755900  0.02822900  0.82429100  1
  Ni  Ni17  1  0.91534500  0.41070200  0.40850200  1
  Ni  Ni18  1  0.81376100  0.60317000  0.36456300  1
  Ni  Ni19  1  0.10117800  0.77390500  0.31858600  1
  Cu  Cu20  1  0.34680400  0.80572800  0.36763400  1
  Cu  Cu21  1  0.84680400  0.19427200  0.13236600  1
  Cu  Cu22  1  0.15319600  0.80572800  0.86763400  1
  Cu  Cu23  1  0.65319600  0.19427200  0.63236600  1
  C  C24  1  0.48396300  0.72300400  0.32659000  1
  C  C25  1  0.70003200  0.52022100  0.51910500  1
  C  C26  1  0.10907600  0.40550400  0.68010000  1
  C  C27  1  0.10738600  0.86157300  0.39184900  1
  C  C28  1  0.89265600  0.11878100  0.96886300  1
  C  C29  1  0.60907600  0.59449600  0.81990000  1
  C  C30  1  0.39265600  0.88121900  0.53113700  1
  C  C31  1  0.20003200  0.47977900  0.98089500  1
  C  C32  1  0.60738600  0.13842700  0.10815100  1
  C  C33  1  0.98396300  0.27699600  0.17341000  1
  C  C34  1  0.01603700  0.72300400  0.82659000  1
  C  C35  1  0.39261400  0.86157300  0.89184900  1
  C  C36  1  0.79996800  0.52022100  0.01910500  1
  C  C37  1  0.60734400  0.11878100  0.46886300  1
  C  C38  1  0.39092400  0.40550400  0.18010000  1
  C  C39  1  0.10734400  0.88121900  0.03113700  1
  C  C40  1  0.89261400  0.13842700  0.60815100  1
  C  C41  1  0.89092400  0.59449600  0.31990000  1
  C  C42  1  0.29996800  0.47977900  0.48089500  1
  C  C43  1  0.51603700  0.27699600  0.67341000  1
