# generated using pymatgen
data_CuNiC6
_symmetry_space_group_name_H-M   'P 1'
_cell_length_a   4.93680500
_cell_length_b   6.30068700
_cell_length_c   10.71268300
_cell_angle_alpha   90.00000000
_cell_angle_beta   90.00000000
_cell_angle_gamma   90.00000000
_symmetry_Int_Tables_number   1
_chemical_formula_structural   CuNiC6
_chemical_formula_sum   'Cu4 Ni4 C24'
_cell_volume   333.22082306
_cell_formula_units_Z   4
loop_
 _symmetry_equiv_pos_site_id
 _symmetry_equiv_pos_as_xyz
  1  'x, y, z'
loop_
 _atom_site_type_symbol
 _atom_site_label
 _atom_site_symmetry_multiplicity
 _atom_site_fract_x
 _atom_site_fract_y
 _atom_site_fract_z
 _atom_site_occupancy
  C  C0  1  0.18585600  0.49904300  0.91133600  1
  C  C1  1  0.68585600  0.50095700  0.58866400  1
  C  C2  1  0.81414400  0.50095700  0.08866400  1
  C  C3  1  0.68585600  0.99904300  0.58866400  1
  C  C4  1  0.31414400  0.00095700  0.41133600  1
  C  C5  1  0.81414400  0.99904300  0.08866400  1
  C  C6  1  0.18585600  0.00095700  0.91133600  1
  C  C7  1  0.31414400  0.49904300  0.41133600  1
  Ni  Ni8  1  0.82613400  0.25000000  0.33404200  1
  Ni  Ni9  1  0.67386600  0.25000000  0.83404200  1
  Ni  Ni10  1  0.17386600  0.75000000  0.66595800  1
  Ni  Ni11  1  0.32613400  0.75000000  0.16595800  1
  Cu  Cu12  1  0.31366700  0.25000000  0.16060300  1
  Cu  Cu13  1  0.18633300  0.25000000  0.66060300  1
  Cu  Cu14  1  0.81366700  0.75000000  0.33939700  1
  Cu  Cu15  1  0.68633300  0.75000000  0.83939700  1
  C  C16  1  0.71883200  0.46610100  0.40704200  1
  C  C17  1  0.78116800  0.46610100  0.90704200  1
  C  C18  1  0.16091100  0.25000000  0.33291900  1
  C  C19  1  0.78263300  0.25000000  0.68752800  1
  C  C20  1  0.71736700  0.25000000  0.18752800  1
  C  C21  1  0.33908900  0.25000000  0.83291900  1
  C  C22  1  0.71883200  0.03389900  0.40704200  1
  C  C23  1  0.78116800  0.03389900  0.90704200  1
  C  C24  1  0.28116800  0.96610100  0.59295800  1
  C  C25  1  0.21883200  0.96610100  0.09295800  1
  C  C26  1  0.28263300  0.75000000  0.81247200  1
  C  C27  1  0.66091100  0.75000000  0.16708100  1
  C  C28  1  0.83908900  0.75000000  0.66708100  1
  C  C29  1  0.21736700  0.75000000  0.31247200  1
  C  C30  1  0.28116800  0.53389900  0.59295800  1
  C  C31  1  0.21883200  0.53389900  0.09295800  1
