# generated using pymatgen
data_Cu2NiC8
_symmetry_space_group_name_H-M   'P 1'
_cell_length_a   17.73976239
_cell_length_b   17.73976239
_cell_length_c   6.21900000
_cell_angle_alpha   90.00000000
_cell_angle_beta   90.00000000
_cell_angle_gamma   120.00000146
_symmetry_Int_Tables_number   1
_chemical_formula_structural   Cu2NiC8
_chemical_formula_sum   'Cu18 Ni9 C72'
_cell_volume   1694.91053517
_cell_formula_units_Z   9
loop_
 _symmetry_equiv_pos_site_id
 _symmetry_equiv_pos_as_xyz
  1  'x, y, z'
loop_
 _atom_site_type_symbol
 _atom_site_label
 _atom_site_symmetry_multiplicity
 _atom_site_fract_x
 _atom_site_fract_y
 _atom_site_fract_z
 _atom_site_occupancy
  Ni  Ni0  1  0.33412900  0.33357600  0.75041800  1
  Ni  Ni1  1  0.66666700  0.33333300  0.00996600  1
  Ni  Ni2  1  0.33134800  0.99734300  0.26118600  1
  Ni  Ni3  1  0.66599500  0.66865200  0.26118600  1
  Ni  Ni4  1  0.99944600  0.66587100  0.75041800  1
  Ni  Ni5  1  0.00265700  0.33400500  0.26118600  1
  Ni  Ni6  1  0.00000000  0.00000000  0.00487200  1
  Ni  Ni7  1  0.33333300  0.66666700  0.52880700  1
  Ni  Ni8  1  0.66642400  0.00055400  0.75041800  1
  Cu  Cu9  1  0.93207900  0.77127400  0.25090000  1
  Cu  Cu10  1  0.50517400  0.40435400  0.25315100  1
  Cu  Cu11  1  0.56077100  0.82938300  0.25450400  1
  Cu  Cu12  1  0.26861200  0.43922900  0.25450400  1
  Cu  Cu13  1  0.49473700  0.60258000  0.75121900  1
  Cu  Cu14  1  0.59564600  0.10081900  0.25315100  1
  Cu  Cu15  1  0.39742000  0.89215700  0.75121900  1
  Cu  Cu16  1  0.16028900  0.93047100  0.76185800  1
  Cu  Cu17  1  0.89918100  0.49482600  0.25315100  1
  Cu  Cu18  1  0.06952900  0.22981800  0.76185800  1
  Cu  Cu19  1  0.73153300  0.56154600  0.76663300  1
  Cu  Cu20  1  0.77018200  0.83971100  0.76185800  1
  Cu  Cu21  1  0.22872600  0.16080400  0.25090000  1
  Cu  Cu22  1  0.10784300  0.50526300  0.75121900  1
  Cu  Cu23  1  0.43845400  0.16998700  0.76663300  1
  Cu  Cu24  1  0.17061700  0.73138800  0.25450400  1
  Cu  Cu25  1  0.83919600  0.06792100  0.25090000  1
  Cu  Cu26  1  0.83001300  0.26846700  0.76663300  1
  C  C27  1  0.41705400  0.10703900  0.52541300  1
  C  C28  1  0.51167000  0.95993900  0.73220500  1
  C  C29  1  0.68998500  0.58294600  0.52541300  1
  C  C30  1  0.59833300  0.91086000  0.46054400  1
  C  C31  1  0.75245400  0.77631800  0.52216700  1
  C  C32  1  0.11681700  0.81603600  0.75947800  1
  C  C33  1  0.04184500  0.11503200  0.79769000  1
  C  C34  1  0.88367900  0.18230300  0.25193200  1
  C  C35  1  0.64735100  0.08990100  0.48955800  1
  C  C36  1  0.76519800  0.02128100  0.02975700  1
  C  C37  1  0.81769700  0.70137700  0.25193200  1
  C  C38  1  0.31252700  0.40166700  0.46054400  1
  C  C39  1  0.22368200  0.97613600  0.52216700  1
  C  C40  1  0.63356400  0.06713300  0.02592500  1
  C  C41  1  0.44714600  0.74554400  0.32675400  1
  C  C42  1  0.69977000  0.44554800  0.80093000  1
  C  C43  1  0.92718000  0.04155600  0.21300500  1
  C  C44  1  0.37307200  0.21963000  0.77208000  1
  C  C45  1  0.96905100  0.45053000  0.27175600  1
  C  C46  1  0.23163300  0.97542400  0.98702600  1
  C  C47  1  0.68574900  0.58898200  0.98879600  1
  C  C48  1  0.77972600  0.02498300  0.49583200  1
  C  C49  1  0.89296100  0.31001500  0.52541300  1
  C  C50  1  0.15416100  0.36959000  0.24938500  1
  C  C51  1  0.56320800  0.65149600  0.52114200  1
  C  C52  1  0.84655800  0.62692800  0.77208000  1
  C  C53  1  0.44255000  0.35264900  0.48955800  1
  C  C54  1  0.54947000  0.51852100  0.27175600  1
  C  C55  1  0.56947200  0.88203400  0.00365900  1
  C  C56  1  0.97501700  0.75474300  0.49583200  1
  C  C57  1  0.36744700  0.77612100  0.74620800  1
  C  C58  1  0.21542900  0.84583900  0.24938500  1
  C  C59  1  0.74577800  0.30023000  0.80093000  1
  C  C60  1  0.56032900  0.64363300  0.98777000  1
  C  C61  1  0.22387900  0.59132500  0.74620800  1
  C  C62  1  0.02457600  0.25620900  0.98702600  1
  C  C63  1  0.40867500  0.63255300  0.74620800  1
  C  C64  1  0.02386400  0.24754600  0.52216700  1
  C  C65  1  0.59138100  0.37587100  0.20790000  1
  C  C66  1  0.63041000  0.78457100  0.24938500  1
  C  C67  1  0.08330500  0.43967100  0.98777000  1
  C  C68  1  0.90323300  0.31425100  0.98879600  1
  C  C69  1  0.41101800  0.09676700  0.98879600  1
  C  C70  1  0.11796600  0.68743800  0.00365900  1
  C  C71  1  0.62412900  0.21551100  0.20790000  1
  C  C72  1  0.25445600  0.70160200  0.32675400  1
  C  C73  1  0.48147900  0.03094900  0.27175600  1
  C  C74  1  0.43356800  0.36643600  0.02592500  1
  C  C75  1  0.88496800  0.92681300  0.79769000  1
  C  C76  1  0.04006100  0.55173100  0.73220500  1
  C  C77  1  0.97871900  0.74391700  0.02975700  1
  C  C78  1  0.31256200  0.43052800  0.00365900  1
  C  C79  1  0.34850400  0.91171200  0.52114200  1
  C  C80  1  0.35636700  0.91669500  0.98777000  1
  C  C81  1  0.93286700  0.56643200  0.02592500  1
  C  C82  1  0.55445200  0.25422200  0.80093000  1
  C  C83  1  0.11437500  0.07282000  0.21300500  1
  C  C84  1  0.25608300  0.23480200  0.02975700  1
  C  C85  1  0.91009900  0.55745000  0.48955800  1
  C  C86  1  0.95844400  0.88562500  0.21300500  1
  C  C87  1  0.69921900  0.88318300  0.75947800  1
  C  C88  1  0.07318700  0.95815500  0.79769000  1
  C  C89  1  0.78037000  0.15344200  0.77208000  1
  C  C90  1  0.08914000  0.68747300  0.46054400  1
  C  C91  1  0.29862300  0.11632100  0.25193200  1
  C  C92  1  0.44826900  0.48833000  0.73220500  1
  C  C93  1  0.29839800  0.55285400  0.32675400  1
  C  C94  1  0.78448900  0.40861900  0.20790000  1
  C  C95  1  0.08828800  0.43679200  0.52114200  1
  C  C96  1  0.24525700  0.22027400  0.49583200  1
  C  C97  1  0.74379100  0.76836700  0.98702600  1
  C  C98  1  0.18396400  0.30078100  0.75947800  1
