# generated using pymatgen
data_Cu4NiC22
_symmetry_space_group_name_H-M   'P 1'
_cell_length_a   9.99942444
_cell_length_b   9.96750341
_cell_length_c   9.77142939
_cell_angle_alpha   60.86347250
_cell_angle_beta   60.53701690
_cell_angle_gamma   58.59951061
_symmetry_Int_Tables_number   1
_chemical_formula_structural   Cu4NiC22
_chemical_formula_sum   'Cu8 Ni2 C44'
_cell_volume   688.03912181
_cell_formula_units_Z   2
loop_
 _symmetry_equiv_pos_site_id
 _symmetry_equiv_pos_as_xyz
  1  'x, y, z'
loop_
 _atom_site_type_symbol
 _atom_site_label
 _atom_site_symmetry_multiplicity
 _atom_site_fract_x
 _atom_site_fract_y
 _atom_site_fract_z
 _atom_site_occupancy
  C  C0  1  0.96020000  0.53980000  0.96020000  1
  C  C1  1  0.54001400  0.95998600  0.95998600  1
  C  C2  1  0.29001400  0.70998600  0.70998600  1
  C  C3  1  0.71020000  0.28980000  0.71020000  1
  C  C4  1  0.53980000  0.96020000  0.53980000  1
  C  C5  1  0.95998600  0.54001400  0.54001400  1
  C  C6  1  0.70998600  0.29001400  0.29001400  1
  C  C7  1  0.28980000  0.71020000  0.28980000  1
  C  C8  1  0.12500000  0.12500000  0.12500000  1
  C  C9  1  0.12500000  0.12500000  0.62500000  1
  C  C10  1  0.12500000  0.62500000  0.12500000  1
  C  C11  1  0.62500000  0.12500000  0.12500000  1
  Ni  Ni12  1  0.50000000  0.50000000  0.50000000  1
  Ni  Ni13  1  0.75000000  0.75000000  0.75000000  1
  Cu  Cu14  1  0.91664200  0.91332100  0.90327100  1
  Cu  Cu15  1  0.33667900  0.33335800  0.98323400  1
  Cu  Cu16  1  0.90327100  0.26676600  0.91664200  1
  Cu  Cu17  1  0.26676600  0.90327100  0.91332100  1
  Cu  Cu18  1  0.98323400  0.34672900  0.33667900  1
  Cu  Cu19  1  0.34672900  0.98323400  0.33335800  1
  Cu  Cu20  1  0.91332100  0.91664200  0.26676600  1
  Cu  Cu21  1  0.33335800  0.33667900  0.34672900  1
  C  C22  1  0.94513200  0.76867100  0.01469300  1
  C  C23  1  0.30815600  0.57013300  0.55977400  1
  C  C24  1  0.03195300  0.94171600  0.76515800  1
  C  C25  1  0.30828400  0.21804700  0.98882800  1
  C  C26  1  0.76515800  0.26117200  0.03195300  1
  C  C27  1  0.22168600  0.48056400  0.97797900  1
  C  C28  1  0.55977400  0.56193700  0.30815600  1
  C  C29  1  0.57013300  0.30815600  0.56193700  1
  C  C30  1  0.31977100  0.97797900  0.48056400  1
  C  C31  1  0.26117200  0.76515800  0.94171600  1
  C  C32  1  0.48132900  0.30486800  0.97849700  1
  C  C33  1  0.56193700  0.55977400  0.57013300  1
  C  C34  1  0.01469300  0.27150300  0.94513200  1
  C  C35  1  0.27150300  0.01469300  0.76867100  1
  C  C36  1  0.76943600  0.02831400  0.93022900  1
  C  C37  1  0.97797900  0.31977100  0.22168600  1
  C  C38  1  0.27202100  0.93022900  0.02831400  1
  C  C39  1  0.48056400  0.22168600  0.31977100  1
  C  C40  1  0.97849700  0.23530700  0.48132900  1
  C  C41  1  0.23530700  0.97849700  0.30486800  1
  C  C42  1  0.68806300  0.69022600  0.67986700  1
  C  C43  1  0.76867100  0.94513200  0.27150300  1
  C  C44  1  0.98882800  0.48484200  0.30828400  1
  C  C45  1  0.93022900  0.27202100  0.76943600  1
  C  C46  1  0.67986700  0.94184400  0.68806300  1
  C  C47  1  0.69022600  0.68806300  0.94184400  1
  C  C48  1  0.02831400  0.76943600  0.27202100  1
  C  C49  1  0.48484200  0.98882800  0.21804700  1
  C  C50  1  0.94171600  0.03195300  0.26117200  1
  C  C51  1  0.21804700  0.30828400  0.48484200  1
  C  C52  1  0.94184400  0.67986700  0.69022600  1
  C  C53  1  0.30486800  0.48132900  0.23530700  1
