# generated using pymatgen
data_Cu9(Ni3C8)4
_symmetry_space_group_name_H-M   'P 1'
_cell_length_a   7.15189379
_cell_length_b   7.15189379
_cell_length_c   26.00830173
_cell_angle_alpha   82.98233343
_cell_angle_beta   82.98233343
_cell_angle_gamma   57.17780410
_symmetry_Int_Tables_number   1
_chemical_formula_structural   Cu9(Ni3C8)4
_chemical_formula_sum   'Cu18 Ni24 C64'
_cell_volume   1107.06364296
_cell_formula_units_Z   2
loop_
 _symmetry_equiv_pos_site_id
 _symmetry_equiv_pos_as_xyz
  1  'x, y, z'
loop_
 _atom_site_type_symbol
 _atom_site_label
 _atom_site_symmetry_multiplicity
 _atom_site_fract_x
 _atom_site_fract_y
 _atom_site_fract_z
 _atom_site_occupancy
  C  C0  1  0.48602000  0.58382200  0.27343800  1
  C  C1  1  0.41617800  0.51398000  0.22656200  1
  C  C2  1  0.51398000  0.41617800  0.72656200  1
  C  C3  1  0.58382200  0.48602000  0.77343800  1
  C  C4  1  0.13520400  0.90124100  0.30443300  1
  C  C5  1  0.09875900  0.86479600  0.19556700  1
  C  C6  1  0.86479600  0.09875900  0.69556700  1
  C  C7  1  0.90124100  0.13520400  0.80443300  1
  C  C8  1  0.17325300  0.39205700  0.36595400  1
  C  C9  1  0.60794300  0.82674700  0.13404600  1
  C  C10  1  0.82674700  0.60794300  0.63404600  1
  C  C11  1  0.39205700  0.17325300  0.86595400  1
  C  C12  1  0.88901000  0.15410700  0.44264400  1
  C  C13  1  0.84589300  0.11099000  0.05735600  1
  C  C14  1  0.11099000  0.84589300  0.55735600  1
  C  C15  1  0.15410700  0.88901000  0.94264400  1
  C  C16  1  0.67887100  0.73396500  0.46328000  1
  C  C17  1  0.26603500  0.32112900  0.03672000  1
  C  C18  1  0.32112900  0.26603500  0.53672000  1
  C  C19  1  0.73396500  0.67887100  0.96328000  1
  C  C20  1  0.98357500  0.13627600  0.33450300  1
  C  C21  1  0.86372400  0.01642500  0.16549700  1
  C  C22  1  0.01642500  0.86372400  0.66549700  1
  C  C23  1  0.13627600  0.98357500  0.83450300  1
  C  C24  1  0.97139800  0.54452300  0.32593100  1
  C  C25  1  0.45547700  0.02860200  0.17406900  1
  C  C26  1  0.02860200  0.45547700  0.67406900  1
  C  C27  1  0.54452300  0.97139800  0.82593100  1
  C  C28  1  0.65369200  0.23838100  0.41622400  1
  C  C29  1  0.76161900  0.34630800  0.08377600  1
  C  C30  1  0.34630800  0.76161900  0.58377600  1
  C  C31  1  0.23838100  0.65369200  0.91622400  1
  C  C32  1  0.69077800  0.65098000  0.40459400  1
  C  C33  1  0.34902000  0.30922200  0.09540600  1
  C  C34  1  0.30922200  0.34902000  0.59540600  1
  C  C35  1  0.65098000  0.69077800  0.90459400  1
  C  C36  1  0.23685000  0.93910500  0.35309200  1
  C  C37  1  0.06089500  0.76315000  0.14690800  1
  C  C38  1  0.76315000  0.06089500  0.64690800  1
  C  C39  1  0.93910500  0.23685000  0.85309200  1
  C  C40  1  0.20608200  0.54416300  0.31508300  1
  C  C41  1  0.45583700  0.79391800  0.18491700  1
  C  C42  1  0.79391800  0.45583700  0.68491700  1
  C  C43  1  0.54416300  0.20608200  0.81508300  1
  C  C44  1  0.71994700  0.07542000  0.47241700  1
  C  C45  1  0.92458000  0.28005300  0.02758300  1
  C  C46  1  0.28005300  0.92458000  0.52758300  1
  C  C47  1  0.07542000  0.71994700  0.97241700  1
  C  C48  1  0.90092700  0.49642500  0.44223600  1
  C  C49  1  0.50357500  0.09907300  0.05776400  1
  C  C50  1  0.09907300  0.50357500  0.55776400  1
  C  C51  1  0.49642500  0.90092700  0.94223600  1
  C  C52  1  0.95057500  0.81401200  0.39210300  1
  C  C53  1  0.18598800  0.04942500  0.10789700  1
  C  C54  1  0.04942500  0.18598800  0.60789700  1
  C  C55  1  0.81401200  0.95057500  0.89210300  1
  Ni  Ni56  1  0.17005700  0.68082100  0.43292900  1
  Ni  Ni57  1  0.31917900  0.82994300  0.06707100  1
  Ni  Ni58  1  0.82994300  0.31917900  0.56707100  1
  Ni  Ni59  1  0.68082100  0.17005700  0.93292900  1
  Ni  Ni60  1  0.09354700  0.96617600  0.34020000  1
  Ni  Ni61  1  0.03382400  0.90645300  0.15980000  1
  Ni  Ni62  1  0.90645300  0.03382400  0.65980000  1
  Ni  Ni63  1  0.96617600  0.09354700  0.84020000  1
  Ni  Ni64  1  0.09412100  0.54159400  0.34375700  1
  Ni  Ni65  1  0.45840600  0.90587900  0.15624300  1
  Ni  Ni66  1  0.90587900  0.45840600  0.65624300  1
  Ni  Ni67  1  0.54159400  0.09412100  0.84375700  1
  Ni  Ni68  1  0.78059800  0.10571300  0.43639800  1
  Ni  Ni69  1  0.89428700  0.21940200  0.06360200  1
  Ni  Ni70  1  0.21940200  0.89428700  0.56360200  1
  Ni  Ni71  1  0.10571300  0.78059800  0.93639800  1
  Ni  Ni72  1  0.78162800  0.66068000  0.43130300  1
  Ni  Ni73  1  0.33932000  0.21837200  0.06869700  1
  Ni  Ni74  1  0.21837200  0.33932000  0.56869700  1
  Ni  Ni75  1  0.66068000  0.78162800  0.93130300  1
  Ni  Ni76  1  0.65142800  0.00353700  0.29997500  1
  Ni  Ni77  1  0.99646300  0.34857200  0.20002500  1
  Ni  Ni78  1  0.34857200  0.99646300  0.70002500  1
  Ni  Ni79  1  0.00353700  0.65142800  0.79997500  1
  C  C80  1  0.20806200  0.15882900  0.44712000  1
  C  C81  1  0.84117100  0.79193800  0.05288000  1
  C  C82  1  0.79193800  0.84117100  0.55288000  1
  C  C83  1  0.15882900  0.20806200  0.94712000  1
  C  C84  1  0.64553300  0.50044200  0.34254600  1
  C  C85  1  0.49955800  0.35446700  0.15745400  1
  C  C86  1  0.35446700  0.49955800  0.65745400  1
  C  C87  1  0.50044200  0.64553300  0.84254600  1
  Cu  Cu88  1  0.31602700  0.59658400  0.46105700  1
  Cu  Cu89  1  0.40341600  0.68397300  0.03894300  1
  Cu  Cu90  1  0.68397300  0.40341600  0.53894300  1
  Cu  Cu91  1  0.59658400  0.31602700  0.96105700  1
  Cu  Cu92  1  0.66648800  0.98661100  0.35247200  1
  Cu  Cu93  1  0.01338900  0.33351200  0.14752800  1
  Cu  Cu94  1  0.33351200  0.01338900  0.64752800  1
  Cu  Cu95  1  0.98661100  0.66648800  0.85247200  1
  Cu  Cu96  1  0.82242400  0.93401500  0.27105400  1
  Cu  Cu97  1  0.06598500  0.17757600  0.22894600  1
  Cu  Cu98  1  0.17757600  0.06598500  0.72894600  1
  Cu  Cu99  1  0.93401500  0.82242400  0.77105400  1
  Cu  Cu100  1  0.46055800  0.09032400  0.28646400  1
  Cu  Cu101  1  0.90967600  0.53944200  0.21353600  1
  Cu  Cu102  1  0.53944200  0.90967600  0.71353600  1
  Cu  Cu103  1  0.09032400  0.46055800  0.78646400  1
  Cu  Cu104  1  0.36463900  0.63536100  0.25000000  1
  Cu  Cu105  1  0.63536100  0.36463900  0.75000000  1
