# generated using pymatgen
data_Cu5NiC3
_symmetry_space_group_name_H-M   'P 1'
_cell_length_a   6.94155900
_cell_length_b   8.14111700
_cell_length_c   9.74728800
_cell_angle_alpha   90.00000000
_cell_angle_beta   90.00000000
_cell_angle_gamma   90.00000000
_symmetry_Int_Tables_number   1
_chemical_formula_structural   Cu5NiC3
_chemical_formula_sum   'Cu20 Ni4 C12'
_cell_volume   550.83916816
_cell_formula_units_Z   4
loop_
 _symmetry_equiv_pos_site_id
 _symmetry_equiv_pos_as_xyz
  1  'x, y, z'
loop_
 _atom_site_type_symbol
 _atom_site_label
 _atom_site_symmetry_multiplicity
 _atom_site_fract_x
 _atom_site_fract_y
 _atom_site_fract_z
 _atom_site_occupancy
  C  C0  1  0.64035300  0.21409400  0.09126800  1
  C  C1  1  0.85964700  0.28590600  0.59126800  1
  C  C2  1  0.14035300  0.78590600  0.90873200  1
  C  C3  1  0.35964700  0.71409400  0.40873200  1
  C  C4  1  0.35964700  0.78590600  0.90873200  1
  C  C5  1  0.14035300  0.71409400  0.40873200  1
  C  C6  1  0.85964700  0.21409400  0.09126800  1
  C  C7  1  0.64035300  0.28590600  0.59126800  1
  C  C8  1  0.75000000  0.83374600  0.38645600  1
  C  C9  1  0.75000000  0.66625400  0.88645600  1
  C  C10  1  0.25000000  0.16625400  0.61354400  1
  C  C11  1  0.25000000  0.33374600  0.11354400  1
  Ni  Ni12  1  0.25000000  0.25055000  0.90649600  1
  Ni  Ni13  1  0.25000000  0.24945000  0.40649600  1
  Ni  Ni14  1  0.75000000  0.74945000  0.09350400  1
  Ni  Ni15  1  0.75000000  0.75055000  0.59350400  1
  Cu  Cu16  1  0.25000000  0.34588600  0.78345300  1
  Cu  Cu17  1  0.25000000  0.15411400  0.28345300  1
  Cu  Cu18  1  0.75000000  0.65411400  0.21654700  1
  Cu  Cu19  1  0.75000000  0.84588600  0.71654700  1
  Cu  Cu20  1  0.25000000  0.39615100  0.02608400  1
  Cu  Cu21  1  0.25000000  0.10384900  0.52608400  1
  Cu  Cu22  1  0.75000000  0.60384900  0.97391600  1
  Cu  Cu23  1  0.75000000  0.89615100  0.47391600  1
  Cu  Cu24  1  0.07708600  0.15825600  0.92801600  1
  Cu  Cu25  1  0.42291400  0.34174400  0.42801600  1
  Cu  Cu26  1  0.57708600  0.84174400  0.07198400  1
  Cu  Cu27  1  0.92291400  0.65825600  0.57198400  1
  Cu  Cu28  1  0.92291400  0.84174400  0.07198400  1
  Cu  Cu29  1  0.57708600  0.65825600  0.57198400  1
  Cu  Cu30  1  0.42291400  0.15825600  0.92801600  1
  Cu  Cu31  1  0.07708600  0.34174400  0.42801600  1
  Cu  Cu32  1  0.75000000  0.22570400  0.15284900  1
  Cu  Cu33  1  0.75000000  0.27429600  0.65284900  1
  Cu  Cu34  1  0.25000000  0.77429600  0.84715100  1
  Cu  Cu35  1  0.25000000  0.72570400  0.34715100  1
