# generated using pymatgen
data_CuNi3C32
_symmetry_space_group_name_H-M   'P 1'
_cell_length_a   8.61383634
_cell_length_b   8.61383660
_cell_length_c   8.61383632
_cell_angle_alpha   60.02523090
_cell_angle_beta   60.02523489
_cell_angle_gamma   60.02523551
_symmetry_Int_Tables_number   1
_chemical_formula_structural   CuNi3C32
_chemical_formula_sum   'Cu1 Ni3 C32'
_cell_volume   452.19235643
_cell_formula_units_Z   1
loop_
 _symmetry_equiv_pos_site_id
 _symmetry_equiv_pos_as_xyz
  1  'x, y, z'
loop_
 _atom_site_type_symbol
 _atom_site_label
 _atom_site_symmetry_multiplicity
 _atom_site_fract_x
 _atom_site_fract_y
 _atom_site_fract_z
 _atom_site_occupancy
  Ni  Ni0  1  0.14244500  0.14244500  0.14244500  1
  Ni  Ni1  1  0.35690300  0.35690300  0.35690300  1
  Ni  Ni2  1  0.64352300  0.64352300  0.64352300  1
  Cu  Cu3  1  0.85826100  0.85826100  0.85826100  1
  C  C4  1  0.99895700  0.99895700  0.99895700  1
  C  C5  1  0.49973700  0.49973700  0.49973700  1
  C  C6  1  0.24858400  0.54267500  0.95811800  1
  C  C7  1  0.54267500  0.95811800  0.24858400  1
  C  C8  1  0.95811800  0.24858400  0.54267500  1
  C  C9  1  0.04085600  0.75079600  0.46073700  1
  C  C10  1  0.46073700  0.04085600  0.75079600  1
  C  C11  1  0.75079600  0.46073700  0.04085600  1
  C  C12  1  0.12250300  0.30661300  0.49871400  1
  C  C13  1  0.30661300  0.49871400  0.12250300  1
  C  C14  1  0.05729600  0.91561000  0.26635400  1
  C  C15  1  0.49871400  0.12250300  0.30661300  1
  C  C16  1  0.00834800  0.80316200  0.62062200  1
  C  C17  1  0.23292300  0.58362500  0.43855100  1
  C  C18  1  0.26635400  0.05729600  0.91561000  1
  C  C19  1  0.43855100  0.23292300  0.58362500  1
  C  C20  1  0.19435400  0.37626400  0.99984400  1
  C  C21  1  0.58362500  0.43855100  0.23292300  1
  C  C22  1  0.08459500  0.73391300  0.94456700  1
  C  C23  1  0.37626400  0.99984400  0.19435400  1
  C  C24  1  0.62062200  0.00834800  0.80316200  1
  C  C25  1  0.91561000  0.26635400  0.05729600  1
  C  C26  1  0.41653400  0.55610100  0.76716700  1
  C  C27  1  0.80316200  0.62062200  0.00834800  1
  C  C28  1  0.55610100  0.76716700  0.41653400  1
  C  C29  1  0.73391300  0.94456700  0.08459500  1
  C  C30  1  0.76716700  0.41653400  0.55610100  1
  C  C31  1  0.99984400  0.19435400  0.37626400  1
  C  C32  1  0.49995200  0.87585100  0.69495000  1
  C  C33  1  0.94456700  0.08459500  0.73391300  1
  C  C34  1  0.69495000  0.49995200  0.87585100  1
  C  C35  1  0.87585100  0.69495000  0.49995200  1
