# generated using pymatgen
data_Cu7NiC5
_symmetry_space_group_name_H-M   'P 1'
_cell_length_a   6.44998700
_cell_length_b   8.43134529
_cell_length_c   9.98311723
_cell_angle_alpha   85.29959908
_cell_angle_beta   89.75791698
_cell_angle_gamma   89.87743504
_symmetry_Int_Tables_number   1
_chemical_formula_structural   Cu7NiC5
_chemical_formula_sum   'Cu28 Ni4 C20'
_cell_volume   541.07096752
_cell_formula_units_Z   4
loop_
 _symmetry_equiv_pos_site_id
 _symmetry_equiv_pos_as_xyz
  1  'x, y, z'
loop_
 _atom_site_type_symbol
 _atom_site_label
 _atom_site_symmetry_multiplicity
 _atom_site_fract_x
 _atom_site_fract_y
 _atom_site_fract_z
 _atom_site_occupancy
  C  C0  1  0.25144700  0.90213200  0.61298600  1
  C  C1  1  0.25638100  0.90246800  0.12141400  1
  C  C2  1  0.49473600  0.72340200  0.88944400  1
  C  C3  1  0.01337200  0.72566000  0.36526800  1
  C  C4  1  0.48572900  0.72544400  0.36478400  1
  C  C5  1  0.74308400  0.65785300  0.11912500  1
  C  C6  1  0.52414400  0.27780000  0.62041500  1
  C  C7  1  0.97411200  0.27863900  0.61910600  1
  C  C8  1  0.53002400  0.27897800  0.12818100  1
  C  C9  1  0.97111400  0.27828700  0.12803500  1
  C  C10  1  0.74966000  0.10157500  0.88731600  1
  C  C11  1  0.74929600  0.09027100  0.37641700  1
  C  C12  1  0.00520600  0.72787800  0.88811100  1
  C  C13  1  0.74877300  0.66655500  0.59976100  1
  C  C14  1  0.25003300  0.33270900  0.89767600  1
  C  C15  1  0.24908900  0.33347900  0.39400300  1
  C  C16  1  0.24736000  0.58851900  0.64014100  1
  C  C17  1  0.25386500  0.58693200  0.13697100  1
  C  C18  1  0.75277300  0.41446100  0.85654900  1
  C  C19  1  0.74955600  0.41213600  0.35983000  1
  Ni  Ni20  1  0.75344000  0.96267100  0.64992000  1
  Ni  Ni21  1  0.75363500  0.96143200  0.14593000  1
  Ni  Ni22  1  0.24507200  0.03617000  0.85296300  1
  Ni  Ni23  1  0.25006600  0.03715300  0.35127400  1
  Cu  Cu24  1  0.74908400  0.92824900  0.52676200  1
  Cu  Cu25  1  0.23191700  0.88844700  0.81963800  1
  Cu  Cu26  1  0.75833500  0.92825300  0.02182500  1
  Cu  Cu27  1  0.75726900  0.84324900  0.74373100  1
  Cu  Cu28  1  0.25018100  0.89053500  0.32129600  1
  Cu  Cu29  1  0.75208000  0.85084300  0.24357800  1
  Cu  Cu30  1  0.06157400  0.69237300  0.58618000  1
  Cu  Cu31  1  0.43646900  0.69156800  0.59000800  1
  Cu  Cu32  1  0.06050900  0.68720300  0.08585200  1
  Cu  Cu33  1  0.43966000  0.68952600  0.08674100  1
  Cu  Cu34  1  0.75629700  0.58190600  0.90945100  1
  Cu  Cu35  1  0.24038200  0.57106200  0.79857800  1
  Cu  Cu36  1  0.74950400  0.58061300  0.41158600  1
  Cu  Cu37  1  0.24777500  0.56691600  0.29401000  1
  Cu  Cu38  1  0.75142500  0.43211600  0.69995900  1
  Cu  Cu39  1  0.24935900  0.42038700  0.59022800  1
  Cu  Cu40  1  0.74995700  0.42895000  0.20520200  1
  Cu  Cu41  1  0.25033600  0.41819600  0.08556500  1
  Cu  Cu42  1  0.93801700  0.30815900  0.90873000  1
  Cu  Cu43  1  0.56292900  0.31559900  0.91117500  1
  Cu  Cu44  1  0.56142700  0.30989900  0.41530300  1
  Cu  Cu45  1  0.93688800  0.30871400  0.41484600  1
  Cu  Cu46  1  0.25836800  0.15046400  0.75826600  1
  Cu  Cu47  1  0.75190500  0.10730400  0.68378200  1
  Cu  Cu48  1  0.25105700  0.15301200  0.25626100  1
  Cu  Cu49  1  0.24689400  0.06874700  0.97608000  1
  Cu  Cu50  1  0.74927500  0.11095900  0.17514100  1
  Cu  Cu51  1  0.24915700  0.07414800  0.47460400  1
