# generated using pymatgen
data_Cu2Ni3C31
_symmetry_space_group_name_H-M   'P 1'
_cell_length_a   8.63726144
_cell_length_b   8.63726144
_cell_length_c   8.63726076
_cell_angle_alpha   59.94435148
_cell_angle_beta   59.94435148
_cell_angle_gamma   59.94435619
_symmetry_Int_Tables_number   1
_chemical_formula_structural   Cu2Ni3C31
_chemical_formula_sum   'Cu2 Ni3 C31'
_cell_volume   455.05584397
_cell_formula_units_Z   1
loop_
 _symmetry_equiv_pos_site_id
 _symmetry_equiv_pos_as_xyz
  1  'x, y, z'
loop_
 _atom_site_type_symbol
 _atom_site_label
 _atom_site_symmetry_multiplicity
 _atom_site_fract_x
 _atom_site_fract_y
 _atom_site_fract_z
 _atom_site_occupancy
  Ni  Ni0  1  0.85617600  0.85617600  0.85617600  1
  Ni  Ni1  1  0.64593000  0.64593000  0.64593000  1
  Ni  Ni2  1  0.35282100  0.35282100  0.35282100  1
  Cu  Cu3  1  0.00407200  0.00407200  0.00407200  1
  Cu  Cu4  1  0.50063900  0.50063900  0.50063900  1
  C  C5  1  0.14366000  0.14366000  0.14366000  1
  C  C6  1  0.04402300  0.74937100  0.45710800  1
  C  C7  1  0.74937100  0.45710800  0.04402300  1
  C  C8  1  0.45710800  0.04402300  0.74937100  1
  C  C9  1  0.54124700  0.95550100  0.24801400  1
  C  C10  1  0.24801400  0.54124700  0.95550100  1
  C  C11  1  0.95550100  0.24801400  0.54124700  1
  C  C12  1  0.50893200  0.88247500  0.68286900  1
  C  C13  1  0.88247500  0.68286900  0.50893200  1
  C  C14  1  0.73837900  0.94115000  0.08608400  1
  C  C15  1  0.68286900  0.50893200  0.88247500  1
  C  C16  1  0.38665700  0.98574300  0.19405400  1
  C  C17  1  0.56694500  0.76314400  0.41551200  1
  C  C18  1  0.08608400  0.73837900  0.94115000  1
  C  C19  1  0.41551200  0.56694500  0.76314400  1
  C  C20  1  0.99890100  0.80764100  0.62255700  1
  C  C21  1  0.76314400  0.41551200  0.56694500  1
  C  C22  1  0.05357000  0.90847500  0.26694600  1
  C  C23  1  0.80764100  0.62255700  0.99890100  1
  C  C24  1  0.19405400  0.38665700  0.98574300  1
  C  C25  1  0.94115000  0.08608400  0.73837900  1
  C  C26  1  0.23535400  0.58193200  0.44706400  1
  C  C27  1  0.98574300  0.19405400  0.38665700  1
  C  C28  1  0.58193200  0.44706400  0.23535400  1
  C  C29  1  0.90847500  0.26694600  0.05357000  1
  C  C30  1  0.44706400  0.23535400  0.58193200  1
  C  C31  1  0.62255700  0.99890100  0.80764100  1
  C  C32  1  0.30691800  0.49880700  0.12133100  1
  C  C33  1  0.26694600  0.05357000  0.90847500  1
  C  C34  1  0.12133100  0.30691800  0.49880700  1
  C  C35  1  0.49880700  0.12133100  0.30691800  1
