# generated using pymatgen
data_Cu2Ni3C23
_symmetry_space_group_name_H-M   'P 1'
_cell_length_a   6.16382745
_cell_length_b   6.16382745
_cell_length_c   9.91370520
_cell_angle_alpha   89.52438463
_cell_angle_beta   89.52438463
_cell_angle_gamma   59.73369292
_symmetry_Int_Tables_number   1
_chemical_formula_structural   Cu2Ni3C23
_chemical_formula_sum   'Cu2 Ni3 C23'
_cell_volume   325.29395245
_cell_formula_units_Z   1
loop_
 _symmetry_equiv_pos_site_id
 _symmetry_equiv_pos_as_xyz
  1  'x, y, z'
loop_
 _atom_site_type_symbol
 _atom_site_label
 _atom_site_symmetry_multiplicity
 _atom_site_fract_x
 _atom_site_fract_y
 _atom_site_fract_z
 _atom_site_occupancy
  C  C0  1  0.66968400  0.66968400  0.88619800  1
  C  C1  1  0.99135000  0.99135000  0.99520500  1
  C  C2  1  0.99200300  0.99200300  0.50140700  1
  C  C3  1  0.33586900  0.33586900  0.39398100  1
  Ni  Ni4  1  0.83245400  0.83245400  0.21676700  1
  Ni  Ni5  1  0.66296200  0.16767600  0.71528100  1
  Ni  Ni6  1  0.16767600  0.66296200  0.71528100  1
  Cu  Cu7  1  0.67057100  0.67057100  0.49182200  1
  Cu  Cu8  1  0.33698300  0.33698300  0.98519700  1
  C  C9  1  0.83297300  0.33891200  0.21561300  1
  C  C10  1  0.33891200  0.83297300  0.21561300  1
  C  C11  1  0.16908600  0.16908600  0.71032600  1
  C  C12  1  0.83146000  0.31524700  0.60313100  1
  C  C13  1  0.51942300  0.51942300  0.34168000  1
  C  C14  1  0.67481000  0.67481000  0.09939100  1
  C  C15  1  0.99436800  0.99436800  0.31939400  1
  C  C16  1  0.99421400  0.99421400  0.81250000  1
  C  C17  1  0.31524700  0.83146000  0.60313100  1
  C  C18  1  0.96534400  0.52710300  0.33583300  1
  C  C19  1  0.52710300  0.96534400  0.33583300  1
  C  C20  1  0.15579700  0.15579700  0.09581600  1
  C  C21  1  0.84086000  0.84086000  0.61068600  1
  C  C22  1  0.49056100  0.03781600  0.83158000  1
  C  C23  1  0.03781600  0.49056100  0.83158000  1
  C  C24  1  0.34238800  0.34238800  0.60295100  1
  C  C25  1  0.68242900  0.14943600  0.10731200  1
  C  C26  1  0.48098900  0.48098900  0.82680700  1
  C  C27  1  0.14943600  0.68242900  0.10731200  1
