# generated using pymatgen
data_Cu11(Ni3C10)3
_symmetry_space_group_name_H-M   'P 1'
_cell_length_a   7.60586600
_cell_length_b   8.91496499
_cell_length_c   9.19062009
_cell_angle_alpha   81.01188626
_cell_angle_beta   72.18187803
_cell_angle_gamma   66.91885459
_symmetry_Int_Tables_number   1
_chemical_formula_structural   Cu11(Ni3C10)3
_chemical_formula_sum   'Cu11 Ni9 C30'
_cell_volume   545.32670378
_cell_formula_units_Z   1
loop_
 _symmetry_equiv_pos_site_id
 _symmetry_equiv_pos_as_xyz
  1  'x, y, z'
loop_
 _atom_site_type_symbol
 _atom_site_label
 _atom_site_symmetry_multiplicity
 _atom_site_fract_x
 _atom_site_fract_y
 _atom_site_fract_z
 _atom_site_occupancy
  Ni  Ni0  1  0.34245700  0.25971600  0.77435500  1
  Ni  Ni1  1  0.73944500  0.05438100  0.17199300  1
  Ni  Ni2  1  0.86063800  0.14658600  0.42261200  1
  Ni  Ni3  1  0.45966000  0.34134800  0.02819300  1
  Ni  Ni4  1  0.05889200  0.54134000  0.62432300  1
  Ni  Ni5  1  0.53838300  0.65876200  0.97663700  1
  Ni  Ni6  1  0.66545500  0.73815200  0.22790200  1
  Ni  Ni7  1  0.13501800  0.85817300  0.57092900  1
  Ni  Ni8  1  0.26277300  0.94298900  0.82726200  1
  Cu  Cu9  1  0.83557500  0.25970700  0.77838700  1
  Cu  Cu10  1  0.23619000  0.05740500  0.17748300  1
  Cu  Cu11  1  0.35828600  0.14265300  0.42514100  1
  Cu  Cu12  1  0.55919900  0.54730300  0.62370700  1
  Cu  Cu13  1  0.94035000  0.45934900  0.37382800  1
  Cu  Cu14  1  0.03731700  0.65728600  0.97517800  1
  Cu  Cu15  1  0.96228600  0.34078800  0.02896700  1
  Cu  Cu16  1  0.43569700  0.45979200  0.37729000  1
  Cu  Cu17  1  0.63794100  0.86001000  0.57336900  1
  Cu  Cu18  1  0.15943500  0.74209700  0.22331300  1
  Cu  Cu19  1  0.76221000  0.93746600  0.82297600  1
  C  C20  1  0.01895600  0.02352900  0.76442900  1
  C  C21  1  0.21482800  0.11250800  0.95143400  1
  C  C22  1  0.39001500  0.08640700  0.65390100  1
  C  C23  1  0.16823900  0.02736000  0.42634400  1
  C  C24  1  0.57970200  0.19127200  0.83434000  1
  C  C25  1  0.22967500  0.40712200  0.96121800  1
  C  C26  1  0.62762900  0.20834500  0.36177000  1
  C  C27  1  0.02916700  0.36569100  0.77045800  1
  C  C28  1  0.43716100  0.17016700  0.17093900  1
  C  C29  1  0.81215700  0.30748800  0.56290600  1
  C  C30  1  0.59665500  0.48170700  0.85114100  1
  C  C31  1  0.98662100  0.27890100  0.25485200  1
  C  C32  1  0.76506100  0.22725800  0.02138000  1
  C  C33  1  0.35905500  0.43066900  0.63541400  1
  C  C34  1  0.18242100  0.39353800  0.44173200  1
  C  C35  1  0.82312800  0.61647900  0.56594300  1
  C  C36  1  0.23714800  0.77353300  0.96691500  1
  C  C37  1  0.63119700  0.56932000  0.37121700  1
  C  C38  1  0.01576400  0.71276700  0.74888100  1
  C  C39  1  0.41075700  0.51426100  0.14529100  1
  C  C40  1  0.18456400  0.68937800  0.45231800  1
  C  C41  1  0.56250400  0.83087800  0.83032300  1
  C  C42  1  0.95983800  0.63328300  0.21972400  1
  C  C43  1  0.77267100  0.58347600  0.03644800  1
  C  C44  1  0.36789500  0.79080500  0.63946400  1
  C  C45  1  0.43160400  0.80826700  0.15883300  1
  C  C46  1  0.84188700  0.97229100  0.56902400  1
  C  C47  1  0.61478600  0.91205200  0.34486400  1
  C  C48  1  0.78611300  0.88948600  0.05014000  1
  C  C49  1  0.97559500  0.98646100  0.23450900  1
