# generated using pymatgen
data_CuNiC5
_symmetry_space_group_name_H-M   'P 1'
_cell_length_a   8.60423469
_cell_length_b   8.60423469
_cell_length_c   8.60423453
_cell_angle_alpha   107.33759128
_cell_angle_beta   107.33759128
_cell_angle_gamma   107.33759424
_symmetry_Int_Tables_number   1
_chemical_formula_structural   CuNiC5
_chemical_formula_sum   'Cu6 Ni6 C30'
_cell_volume   525.53445504
_cell_formula_units_Z   6
loop_
 _symmetry_equiv_pos_site_id
 _symmetry_equiv_pos_as_xyz
  1  'x, y, z'
loop_
 _atom_site_type_symbol
 _atom_site_label
 _atom_site_symmetry_multiplicity
 _atom_site_fract_x
 _atom_site_fract_y
 _atom_site_fract_z
 _atom_site_occupancy
  C  C0  1  0.77299300  0.94411600  0.54201700  1
  C  C1  1  0.05588400  0.45798300  0.22700700  1
  C  C2  1  0.45798300  0.22700700  0.05588400  1
  C  C3  1  0.54201700  0.77299300  0.94411600  1
  C  C4  1  0.94411600  0.54201700  0.77299300  1
  C  C5  1  0.22700700  0.05588400  0.45798300  1
  Ni  Ni6  1  0.42314800  0.60720900  0.19900400  1
  Ni  Ni7  1  0.39279100  0.80099600  0.57685200  1
  Ni  Ni8  1  0.80099600  0.57685200  0.39279100  1
  Ni  Ni9  1  0.19900400  0.42314800  0.60720900  1
  Ni  Ni10  1  0.60720900  0.19900400  0.42314800  1
  Ni  Ni11  1  0.57685200  0.39279100  0.80099600  1
  Cu  Cu12  1  0.26608900  0.86845000  0.09511600  1
  Cu  Cu13  1  0.90488400  0.73391100  0.13155000  1
  Cu  Cu14  1  0.13155000  0.90488400  0.73391100  1
  Cu  Cu15  1  0.86845000  0.09511600  0.26608900  1
  Cu  Cu16  1  0.09511600  0.26608900  0.86845000  1
  Cu  Cu17  1  0.73391100  0.13155000  0.90488400  1
  C  C18  1  0.05058600  0.73862300  0.03680600  1
  C  C19  1  0.96319400  0.94941400  0.26137700  1
  C  C20  1  0.38081400  0.75087700  0.06987200  1
  C  C21  1  0.93012800  0.61918600  0.24912300  1
  C  C22  1  0.29985000  0.35538200  0.02547100  1
  C  C23  1  0.66303200  0.70489400  0.36254400  1
  C  C24  1  0.24912300  0.93012800  0.61918600  1
  C  C25  1  0.29510600  0.63745600  0.33696800  1
  C  C26  1  0.64461800  0.97452900  0.70015000  1
  C  C27  1  0.97452900  0.70015000  0.64461800  1
  C  C28  1  0.63745600  0.33696800  0.29510600  1
  C  C29  1  0.26137700  0.96319400  0.94941400  1
  C  C30  1  0.73862300  0.03680600  0.05058600  1
  C  C31  1  0.36254400  0.66303200  0.70489400  1
  C  C32  1  0.02547100  0.29985000  0.35538200  1
  C  C33  1  0.35538200  0.02547100  0.29985000  1
  C  C34  1  0.70489400  0.36254400  0.66303200  1
  C  C35  1  0.75087700  0.06987200  0.38081400  1
  C  C36  1  0.33696800  0.29510600  0.63745600  1
  C  C37  1  0.70015000  0.64461800  0.97452900  1
  C  C38  1  0.06987200  0.38081400  0.75087700  1
  C  C39  1  0.61918600  0.24912300  0.93012800  1
  C  C40  1  0.03680600  0.05058600  0.73862300  1
  C  C41  1  0.94941400  0.26137700  0.96319400  1
