# generated using pymatgen
data_CuNiC3
_symmetry_space_group_name_H-M   'P 1'
_cell_length_a   6.08585400
_cell_length_b   6.03314600
_cell_length_c   8.51063151
_cell_angle_alpha   89.85699993
_cell_angle_beta   90.00000000
_cell_angle_gamma   90.00000000
_symmetry_Int_Tables_number   1
_chemical_formula_structural   CuNiC3
_chemical_formula_sum   'Cu4 Ni4 C12'
_cell_volume   312.48257074
_cell_formula_units_Z   4
loop_
 _symmetry_equiv_pos_site_id
 _symmetry_equiv_pos_as_xyz
  1  'x, y, z'
loop_
 _atom_site_type_symbol
 _atom_site_label
 _atom_site_symmetry_multiplicity
 _atom_site_fract_x
 _atom_site_fract_y
 _atom_site_fract_z
 _atom_site_occupancy
  Ni  Ni0  1  0.99178500  0.02397500  0.75092900  1
  Ni  Ni1  1  0.49178500  0.47602500  0.24907100  1
  Ni  Ni2  1  0.50821500  0.52397500  0.75092900  1
  Ni  Ni3  1  0.00821500  0.97602500  0.24907100  1
  Cu  Cu4  1  0.50000000  0.00000000  0.50000000  1
  Cu  Cu5  1  0.50000000  0.00000000  0.00000000  1
  Cu  Cu6  1  0.00000000  0.50000000  0.50000000  1
  Cu  Cu7  1  0.00000000  0.50000000  0.00000000  1
  C  C8  1  0.38924400  0.04032400  0.25158900  1
  C  C9  1  0.17580500  0.17636000  0.96086500  1
  C  C10  1  0.81273900  0.18690700  0.43548100  1
  C  C11  1  0.31273900  0.31309300  0.56451900  1
  C  C12  1  0.67580500  0.32364000  0.03913500  1
  C  C13  1  0.88924400  0.45967600  0.74841100  1
  C  C14  1  0.11075600  0.54032400  0.25158900  1
  C  C15  1  0.32419500  0.67636000  0.96086500  1
  C  C16  1  0.68726100  0.68690700  0.43548100  1
  C  C17  1  0.18726100  0.81309300  0.56451900  1
  C  C18  1  0.82419500  0.82364000  0.03913500  1
  C  C19  1  0.61075600  0.95967600  0.74841100  1
