# generated using pymatgen
data_Cu6Ni2C9
_symmetry_space_group_name_H-M   'P 1'
_cell_length_a   5.94802050
_cell_length_b   5.94802050
_cell_length_c   9.53639000
_cell_angle_alpha   90.00000000
_cell_angle_beta   90.00000000
_cell_angle_gamma   120.00000557
_symmetry_Int_Tables_number   1
_chemical_formula_structural   Cu6Ni2C9
_chemical_formula_sum   'Cu12 Ni4 C18'
_cell_volume   292.18608165
_cell_formula_units_Z   2
loop_
 _symmetry_equiv_pos_site_id
 _symmetry_equiv_pos_as_xyz
  1  'x, y, z'
loop_
 _atom_site_type_symbol
 _atom_site_label
 _atom_site_symmetry_multiplicity
 _atom_site_fract_x
 _atom_site_fract_y
 _atom_site_fract_z
 _atom_site_occupancy
  C  C0  1  0.33333300  0.66666700  0.25079700  1
  C  C1  1  0.66666700  0.33333300  0.75079700  1
  C  C2  1  0.09430800  0.90569200  0.55625700  1
  C  C3  1  0.14505800  0.57252900  0.91227100  1
  C  C4  1  0.33333300  0.66666700  0.76804800  1
  C  C5  1  0.00000000  0.00000000  0.20056500  1
  C  C6  1  0.00000000  0.00000000  0.70056500  1
  C  C7  1  0.09430800  0.18861600  0.55625700  1
  C  C8  1  0.42747100  0.85494200  0.91227100  1
  C  C9  1  0.18861600  0.09430800  0.05625700  1
  C  C10  1  0.42747100  0.57252900  0.91227100  1
  C  C11  1  0.57252900  0.42747100  0.41227100  1
  C  C12  1  0.81138400  0.90569200  0.55625700  1
  C  C13  1  0.57252900  0.14505800  0.41227100  1
  C  C14  1  0.66666700  0.33333300  0.26804800  1
  C  C15  1  0.90569200  0.81138400  0.05625700  1
  C  C16  1  0.85494200  0.42747100  0.41227100  1
  C  C17  1  0.90569200  0.09430800  0.05625700  1
  Ni  Ni18  1  0.33333300  0.66666700  0.87587300  1
  Ni  Ni19  1  0.00000000  0.00000000  0.09272200  1
  Ni  Ni20  1  0.00000000  0.00000000  0.59272200  1
  Ni  Ni21  1  0.66666700  0.33333300  0.37587300  1
  Cu  Cu22  1  0.18561300  0.81438700  0.36216700  1
  Cu  Cu23  1  0.04003900  0.52002000  0.13939700  1
  Cu  Cu24  1  0.18561300  0.37122600  0.36216700  1
  Cu  Cu25  1  0.47998000  0.95996100  0.13939700  1
  Cu  Cu26  1  0.47998000  0.52002000  0.13939700  1
  Cu  Cu27  1  0.62877400  0.81438700  0.36216700  1
  Cu  Cu28  1  0.37122600  0.18561300  0.86216700  1
  Cu  Cu29  1  0.52002000  0.47998000  0.63939700  1
  Cu  Cu30  1  0.52002000  0.04003900  0.63939700  1
  Cu  Cu31  1  0.81438700  0.62877400  0.86216700  1
  Cu  Cu32  1  0.95996100  0.47998000  0.63939700  1
  Cu  Cu33  1  0.81438700  0.18561300  0.86216700  1
