# generated using pymatgen
data_CuNi12C11
_symmetry_space_group_name_H-M   'P 1'
_cell_length_a   12.13922600
_cell_length_b   12.13922600
_cell_length_c   12.13922600
_cell_angle_alpha   90.00000000
_cell_angle_beta   90.00000000
_cell_angle_gamma   90.00000000
_symmetry_Int_Tables_number   1
_chemical_formula_structural   CuNi12C11
_chemical_formula_sum   'Cu8 Ni96 C88'
_cell_volume   1788.84615039
_cell_formula_units_Z   8
loop_
 _symmetry_equiv_pos_site_id
 _symmetry_equiv_pos_as_xyz
  1  'x, y, z'
loop_
 _atom_site_type_symbol
 _atom_site_label
 _atom_site_symmetry_multiplicity
 _atom_site_fract_x
 _atom_site_fract_y
 _atom_site_fract_z
 _atom_site_occupancy
  C  C0  1  0.00000000  0.00000000  0.50000000  1
  C  C1  1  0.00000000  0.50000000  0.00000000  1
  C  C2  1  0.50000000  0.00000000  0.00000000  1
  C  C3  1  0.50000000  0.50000000  0.50000000  1
  C  C4  1  0.50000000  0.50000000  0.00000000  1
  C  C5  1  0.50000000  0.00000000  0.50000000  1
  C  C6  1  0.00000000  0.50000000  0.50000000  1
  C  C7  1  0.00000000  0.00000000  0.00000000  1
  Ni  Ni8  1  0.55787000  0.70141300  0.01600100  1
  Ni  Ni9  1  0.44213000  0.20141300  0.48399900  1
  Ni  Ni10  1  0.94213000  0.29858700  0.51600100  1
  Ni  Ni11  1  0.05787000  0.79858700  0.98399900  1
  Ni  Ni12  1  0.01600100  0.55787000  0.70141300  1
  Ni  Ni13  1  0.48399900  0.44213000  0.20141300  1
  Ni  Ni14  1  0.51600100  0.94213000  0.29858700  1
  Ni  Ni15  1  0.98399900  0.05787000  0.79858700  1
  Ni  Ni16  1  0.70141300  0.01600100  0.55787000  1
  Ni  Ni17  1  0.20141300  0.48399900  0.44213000  1
  Ni  Ni18  1  0.29858700  0.51600100  0.94213000  1
  Ni  Ni19  1  0.79858700  0.98399900  0.05787000  1
  Ni  Ni20  1  0.44213000  0.29858700  0.98399900  1
  Ni  Ni21  1  0.55787000  0.79858700  0.51600100  1
  Ni  Ni22  1  0.05787000  0.70141300  0.48399900  1
  Ni  Ni23  1  0.94213000  0.20141300  0.01600100  1
  Ni  Ni24  1  0.98399900  0.44213000  0.29858700  1
  Ni  Ni25  1  0.51600100  0.55787000  0.79858700  1
  Ni  Ni26  1  0.48399900  0.05787000  0.70141300  1
  Ni  Ni27  1  0.01600100  0.94213000  0.20141300  1
  Ni  Ni28  1  0.29858700  0.98399900  0.44213000  1
  Ni  Ni29  1  0.79858700  0.51600100  0.55787000  1
  Ni  Ni30  1  0.70141300  0.48399900  0.05787000  1
  Ni  Ni31  1  0.20141300  0.01600100  0.94213000  1
  Ni  Ni32  1  0.42532500  0.71253400  0.01479300  1
  Ni  Ni33  1  0.57467500  0.21253400  0.48520700  1
  Ni  Ni34  1  0.07467500  0.28746600  0.51479300  1
  Ni  Ni35  1  0.92532500  0.78746600  0.98520700  1
  Ni  Ni36  1  0.01479300  0.42532500  0.71253400  1
  Ni  Ni37  1  0.48520700  0.57467500  0.21253400  1
  Ni  Ni38  1  0.51479300  0.07467500  0.28746600  1
  Ni  Ni39  1  0.98520700  0.92532500  0.78746600  1
  Ni  Ni40  1  0.71253400  0.01479300  0.42532500  1
  Ni  Ni41  1  0.21253400  0.48520700  0.57467500  1
  Ni  Ni42  1  0.28746600  0.51479300  0.07467500  1
  Ni  Ni43  1  0.78746600  0.98520700  0.92532500  1
  Ni  Ni44  1  0.57467500  0.28746600  0.98520700  1
  Ni  Ni45  1  0.42532500  0.78746600  0.51479300  1
  Ni  Ni46  1  0.92532500  0.71253400  0.48520700  1
  Ni  Ni47  1  0.07467500  0.21253400  0.01479300  1
  Ni  Ni48  1  0.98520700  0.57467500  0.28746600  1
  Ni  Ni49  1  0.51479300  0.42532500  0.78746600  1
  Ni  Ni50  1  0.48520700  0.92532500  0.71253400  1
  Ni  Ni51  1  0.01479300  0.07467500  0.21253400  1
  Ni  Ni52  1  0.28746600  0.98520700  0.57467500  1
  Ni  Ni53  1  0.78746600  0.51479300  0.42532500  1
  Ni  Ni54  1  0.71253400  0.48520700  0.92532500  1
  Ni  Ni55  1  0.21253400  0.01479300  0.07467500  1
  Ni  Ni56  1  0.20484400  0.62452100  0.18585000  1
  Ni  Ni57  1  0.79515600  0.12452100  0.31415000  1
  Ni  Ni58  1  0.29515600  0.37547900  0.68585000  1
  Ni  Ni59  1  0.70484400  0.87547900  0.81415000  1
  Ni  Ni60  1  0.18585000  0.20484400  0.62452100  1
  Ni  Ni61  1  0.31415000  0.79515600  0.12452100  1
  Ni  Ni62  1  0.68585000  0.29515600  0.37547900  1
  Ni  Ni63  1  0.81415000  0.70484400  0.87547900  1
  Ni  Ni64  1  0.62452100  0.18585000  0.20484400  1
  Ni  Ni65  1  0.12452100  0.31415000  0.79515600  1
  Ni  Ni66  1  0.37547900  0.68585000  0.29515600  1
  Ni  Ni67  1  0.87547900  0.81415000  0.70484400  1
  Ni  Ni68  1  0.79515600  0.37547900  0.81415000  1
  Ni  Ni69  1  0.20484400  0.87547900  0.68585000  1
  Ni  Ni70  1  0.70484400  0.62452100  0.31415000  1
  Ni  Ni71  1  0.29515600  0.12452100  0.18585000  1
  Ni  Ni72  1  0.81415000  0.79515600  0.37547900  1
  Ni  Ni73  1  0.68585000  0.20484400  0.87547900  1
  Ni  Ni74  1  0.31415000  0.70484400  0.62452100  1
  Ni  Ni75  1  0.18585000  0.29515600  0.12452100  1
  Ni  Ni76  1  0.37547900  0.81415000  0.79515600  1
  Ni  Ni77  1  0.87547900  0.68585000  0.20484400  1
  Ni  Ni78  1  0.62452100  0.31415000  0.70484400  1
  Ni  Ni79  1  0.12452100  0.18585000  0.29515600  1
  Ni  Ni80  1  0.20100400  0.50033800  0.21826200  1
  Ni  Ni81  1  0.79899600  0.00033800  0.28173800  1
  Ni  Ni82  1  0.29899600  0.49966200  0.71826200  1
  Ni  Ni83  1  0.70100400  0.99966200  0.78173800  1
  Ni  Ni84  1  0.21826200  0.20100400  0.50033800  1
  Ni  Ni85  1  0.28173800  0.79899600  0.00033800  1
  Ni  Ni86  1  0.71826200  0.29899600  0.49966200  1
  Ni  Ni87  1  0.78173800  0.70100400  0.99966200  1
  Ni  Ni88  1  0.50033800  0.21826200  0.20100400  1
  Ni  Ni89  1  0.00033800  0.28173800  0.79899600  1
  Ni  Ni90  1  0.49966200  0.71826200  0.29899600  1
  Ni  Ni91  1  0.99966200  0.78173800  0.70100400  1
  Ni  Ni92  1  0.79899600  0.49966200  0.78173800  1
  Ni  Ni93  1  0.20100400  0.99966200  0.71826200  1
  Ni  Ni94  1  0.70100400  0.50033800  0.28173800  1
  Ni  Ni95  1  0.29899600  0.00033800  0.21826200  1
  Ni  Ni96  1  0.78173800  0.79899600  0.49966200  1
  Ni  Ni97  1  0.71826200  0.20100400  0.99966200  1
  Ni  Ni98  1  0.28173800  0.70100400  0.50033800  1
  Ni  Ni99  1  0.21826200  0.29899600  0.00033800  1
  Ni  Ni100  1  0.49966200  0.78173800  0.79899600  1
  Ni  Ni101  1  0.99966200  0.71826200  0.20100400  1
  Ni  Ni102  1  0.50033800  0.28173800  0.70100400  1
  Ni  Ni103  1  0.00033800  0.21826200  0.29899600  1
  Cu  Cu104  1  0.18039300  0.81960700  0.31960700  1
  Cu  Cu105  1  0.81960700  0.31960700  0.18039300  1
  Cu  Cu106  1  0.31960700  0.18039300  0.81960700  1
  Cu  Cu107  1  0.68039300  0.68039300  0.68039300  1
  Cu  Cu108  1  0.81960700  0.18039300  0.68039300  1
  Cu  Cu109  1  0.18039300  0.68039300  0.81960700  1
  Cu  Cu110  1  0.68039300  0.81960700  0.18039300  1
  Cu  Cu111  1  0.31960700  0.31960700  0.31960700  1
  C  C112  1  0.25199000  0.74801000  0.24801000  1
  C  C113  1  0.74801000  0.24801000  0.25199000  1
  C  C114  1  0.24801000  0.25199000  0.74801000  1
  C  C115  1  0.75199000  0.75199000  0.75199000  1
  C  C116  1  0.74801000  0.25199000  0.75199000  1
  C  C117  1  0.25199000  0.75199000  0.74801000  1
  C  C118  1  0.75199000  0.74801000  0.25199000  1
  C  C119  1  0.24801000  0.24801000  0.24801000  1
  C  C120  1  0.07004200  0.83190500  0.26699600  1
  C  C121  1  0.92995800  0.33190500  0.23300400  1
  C  C122  1  0.42995800  0.16809500  0.76699600  1
  C  C123  1  0.57004200  0.66809500  0.73300400  1
  C  C124  1  0.26699600  0.07004200  0.83190500  1
  C  C125  1  0.23300400  0.92995800  0.33190500  1
  C  C126  1  0.76699600  0.42995800  0.16809500  1
  C  C127  1  0.73300400  0.57004200  0.66809500  1
  C  C128  1  0.83190500  0.26699600  0.07004200  1
  C  C129  1  0.33190500  0.23300400  0.92995800  1
  C  C130  1  0.16809500  0.76699600  0.42995800  1
  C  C131  1  0.66809500  0.73300400  0.57004200  1
  C  C132  1  0.92995800  0.16809500  0.73300400  1
  C  C133  1  0.07004200  0.66809500  0.76699600  1
  C  C134  1  0.57004200  0.83190500  0.23300400  1
  C  C135  1  0.42995800  0.33190500  0.26699600  1
  C  C136  1  0.73300400  0.92995800  0.16809500  1
  C  C137  1  0.76699600  0.07004200  0.66809500  1
  C  C138  1  0.23300400  0.57004200  0.83190500  1
  C  C139  1  0.26699600  0.42995800  0.33190500  1
  C  C140  1  0.16809500  0.73300400  0.92995800  1
  C  C141  1  0.66809500  0.76699600  0.07004200  1
  C  C142  1  0.83190500  0.23300400  0.57004200  1
  C  C143  1  0.33190500  0.26699600  0.42995800  1
  C  C144  1  0.33554100  0.48823800  0.01030800  1
  C  C145  1  0.66445900  0.98823800  0.48969200  1
  C  C146  1  0.16445900  0.51176200  0.51030800  1
  C  C147  1  0.83554100  0.01176200  0.98969200  1
  C  C148  1  0.01030800  0.33554100  0.48823800  1
  C  C149  1  0.48969200  0.66445900  0.98823800  1
  C  C150  1  0.51030800  0.16445900  0.51176200  1
  C  C151  1  0.98969200  0.83554100  0.01176200  1
  C  C152  1  0.48823800  0.01030800  0.33554100  1
  C  C153  1  0.98823800  0.48969200  0.66445900  1
  C  C154  1  0.51176200  0.51030800  0.16445900  1
  C  C155  1  0.01176200  0.98969200  0.83554100  1
  C  C156  1  0.66445900  0.51176200  0.98969200  1
  C  C157  1  0.33554100  0.01176200  0.51030800  1
  C  C158  1  0.83554100  0.48823800  0.48969200  1
  C  C159  1  0.16445900  0.98823800  0.01030800  1
  C  C160  1  0.98969200  0.66445900  0.51176200  1
  C  C161  1  0.51030800  0.33554100  0.01176200  1
  C  C162  1  0.48969200  0.83554100  0.48823800  1
  C  C163  1  0.01030800  0.16445900  0.98823800  1
  C  C164  1  0.51176200  0.98969200  0.66445900  1
  C  C165  1  0.01176200  0.51030800  0.33554100  1
  C  C166  1  0.48823800  0.48969200  0.83554100  1
  C  C167  1  0.98823800  0.01030800  0.16445900  1
  C  C168  1  0.19159300  0.54999400  0.15429800  1
  C  C169  1  0.80840700  0.04999400  0.34570200  1
  C  C170  1  0.30840700  0.45000600  0.65429800  1
  C  C171  1  0.69159300  0.95000600  0.84570200  1
  C  C172  1  0.15429800  0.19159300  0.54999400  1
  C  C173  1  0.34570200  0.80840700  0.04999400  1
  C  C174  1  0.65429800  0.30840700  0.45000600  1
  C  C175  1  0.84570200  0.69159300  0.95000600  1
  C  C176  1  0.54999400  0.15429800  0.19159300  1
  C  C177  1  0.04999400  0.34570200  0.80840700  1
  C  C178  1  0.45000600  0.65429800  0.30840700  1
  C  C179  1  0.95000600  0.84570200  0.69159300  1
  C  C180  1  0.80840700  0.45000600  0.84570200  1
  C  C181  1  0.19159300  0.95000600  0.65429800  1
  C  C182  1  0.69159300  0.54999400  0.34570200  1
  C  C183  1  0.30840700  0.04999400  0.15429800  1
  C  C184  1  0.84570200  0.80840700  0.45000600  1
  C  C185  1  0.65429800  0.19159300  0.95000600  1
  C  C186  1  0.34570200  0.69159300  0.54999400  1
  C  C187  1  0.15429800  0.30840700  0.04999400  1
  C  C188  1  0.45000600  0.84570200  0.80840700  1
  C  C189  1  0.95000600  0.65429800  0.19159300  1
  C  C190  1  0.54999400  0.34570200  0.69159300  1
  C  C191  1  0.04999400  0.15429800  0.30840700  1
