# generated using pymatgen
data_Cu2Ni2C7
_symmetry_space_group_name_H-M   'P 1'
_cell_length_a   5.27782000
_cell_length_b   14.14268600
_cell_length_c   16.96831600
_cell_angle_alpha   90.00000000
_cell_angle_beta   90.00000000
_cell_angle_gamma   90.00000000
_symmetry_Int_Tables_number   1
_chemical_formula_structural   Cu2Ni2C7
_chemical_formula_sum   'Cu16 Ni16 C56'
_cell_volume   1266.55839283
_cell_formula_units_Z   8
loop_
 _symmetry_equiv_pos_site_id
 _symmetry_equiv_pos_as_xyz
  1  'x, y, z'
loop_
 _atom_site_type_symbol
 _atom_site_label
 _atom_site_symmetry_multiplicity
 _atom_site_fract_x
 _atom_site_fract_y
 _atom_site_fract_z
 _atom_site_occupancy
  Ni  Ni0  1  0.08937100  0.45071100  0.08594700  1
  Ni  Ni1  1  0.08937100  0.04928900  0.58594700  1
  Ni  Ni2  1  0.08937100  0.45071100  0.41405300  1
  Ni  Ni3  1  0.08937100  0.04928900  0.91405300  1
  Ni  Ni4  1  0.31335200  0.24614300  0.15617400  1
  Ni  Ni5  1  0.31335200  0.24614300  0.34382600  1
  Ni  Ni6  1  0.31335200  0.25385700  0.65617400  1
  Ni  Ni7  1  0.31335200  0.25385700  0.84382600  1
  Ni  Ni8  1  0.68664800  0.74614300  0.15617400  1
  Ni  Ni9  1  0.68664800  0.74614300  0.34382600  1
  Ni  Ni10  1  0.68664800  0.75385700  0.65617400  1
  Ni  Ni11  1  0.68664800  0.75385700  0.84382600  1
  Ni  Ni12  1  0.91062900  0.95071100  0.08594700  1
  Ni  Ni13  1  0.91062900  0.95071100  0.41405300  1
  Ni  Ni14  1  0.91062900  0.54928900  0.58594700  1
  Ni  Ni15  1  0.91062900  0.54928900  0.91405300  1
  Cu  Cu16  1  0.03300800  0.05855300  0.25000000  1
  Cu  Cu17  1  0.03300800  0.44144700  0.75000000  1
  Cu  Cu18  1  0.17766000  0.84824400  0.25000000  1
  Cu  Cu19  1  0.17766000  0.65175600  0.75000000  1
  Cu  Cu20  1  0.42147900  0.64139500  0.00414700  1
  Cu  Cu21  1  0.42147900  0.64139500  0.49585300  1
  Cu  Cu22  1  0.42147900  0.85860500  0.50414700  1
  Cu  Cu23  1  0.42147900  0.85860500  0.99585300  1
  Cu  Cu24  1  0.57852100  0.14139500  0.00414700  1
  Cu  Cu25  1  0.57852100  0.14139500  0.49585300  1
  Cu  Cu26  1  0.57852100  0.35860500  0.50414700  1
  Cu  Cu27  1  0.57852100  0.35860500  0.99585300  1
  Cu  Cu28  1  0.82234000  0.34824400  0.25000000  1
  Cu  Cu29  1  0.82234000  0.15175600  0.75000000  1
  Cu  Cu30  1  0.96699200  0.55855300  0.25000000  1
  Cu  Cu31  1  0.96699200  0.94144700  0.75000000  1
  C  C32  1  0.00811800  0.83156500  0.16485400  1
  C  C33  1  0.00811800  0.83156500  0.33514600  1
  C  C34  1  0.00811800  0.66843500  0.66485400  1
  C  C35  1  0.00811800  0.66843500  0.83514600  1
  C  C36  1  0.13494100  0.54742200  0.16591800  1
  C  C37  1  0.13494100  0.54742200  0.33408200  1
  C  C38  1  0.13494100  0.95257800  0.66591800  1
  C  C39  1  0.13494100  0.95257800  0.83408200  1
  C  C40  1  0.19544700  0.94481900  0.00461200  1
  C  C41  1  0.19544700  0.55518100  0.50461200  1
  C  C42  1  0.19544700  0.94481900  0.49538800  1
  C  C43  1  0.19544700  0.55518100  0.99538800  1
  C  C44  1  0.19129200  0.16423000  0.25000000  1
  C  C45  1  0.19129200  0.33577000  0.75000000  1
  C  C46  1  0.27818200  0.53189700  0.75000000  1
  C  C47  1  0.27818200  0.96810300  0.25000000  1
  C  C48  1  0.24401600  0.75000000  0.00000000  1
  C  C49  1  0.24401600  0.75000000  0.50000000  1
  C  C50  1  0.40003100  0.13961900  0.08636000  1
  C  C51  1  0.40003100  0.13961900  0.41364000  1
  C  C52  1  0.40003100  0.36038100  0.58636000  1
  C  C53  1  0.40003100  0.36038100  0.91364000  1
  C  C54  1  0.39121800  0.13910200  0.57917000  1
  C  C55  1  0.39121800  0.36089800  0.07917000  1
  C  C56  1  0.39121800  0.13910200  0.92083000  1
  C  C57  1  0.39121800  0.36089800  0.42083000  1
  C  C58  1  0.45589400  0.78674300  0.25000000  1
  C  C59  1  0.45589400  0.71325700  0.75000000  1
  C  C60  1  0.54410600  0.21325700  0.75000000  1
  C  C61  1  0.54410600  0.28674300  0.25000000  1
  C  C62  1  0.60878200  0.63910200  0.57917000  1
  C  C63  1  0.60878200  0.86089800  0.07917000  1
  C  C64  1  0.60878200  0.63910200  0.92083000  1
  C  C65  1  0.60878200  0.86089800  0.42083000  1
  C  C66  1  0.59997000  0.63961900  0.08636000  1
  C  C67  1  0.59997000  0.63961900  0.41364000  1
  C  C68  1  0.59997000  0.86038100  0.58636000  1
  C  C69  1  0.59997000  0.86038100  0.91364000  1
  C  C70  1  0.75598400  0.25000000  0.00000000  1
  C  C71  1  0.75598400  0.25000000  0.50000000  1
  C  C72  1  0.72181800  0.03189700  0.75000000  1
  C  C73  1  0.72181800  0.46810300  0.25000000  1
  C  C74  1  0.80870800  0.66423000  0.25000000  1
  C  C75  1  0.80870800  0.83577000  0.75000000  1
  C  C76  1  0.80455300  0.44481900  0.00461200  1
  C  C77  1  0.80455300  0.05518100  0.50461200  1
  C  C78  1  0.80455300  0.05518100  0.99538800  1
  C  C79  1  0.80455300  0.44481900  0.49538800  1
  C  C80  1  0.86505800  0.04742200  0.16591800  1
  C  C81  1  0.86505800  0.04742200  0.33408200  1
  C  C82  1  0.86505800  0.45257800  0.66591800  1
  C  C83  1  0.86505800  0.45257800  0.83408200  1
  C  C84  1  0.99188200  0.33156500  0.16485400  1
  C  C85  1  0.99188200  0.33156500  0.33514600  1
  C  C86  1  0.99188200  0.16843500  0.66485400  1
  C  C87  1  0.99188200  0.16843500  0.83514600  1
