# generated using pymatgen
data_Cu4Ni3C19
_symmetry_space_group_name_H-M   'P 1'
_cell_length_a   9.60498398
_cell_length_b   9.60498398
_cell_length_c   10.98688283
_cell_angle_alpha   87.74368585
_cell_angle_beta   87.74368585
_cell_angle_gamma   41.11761999
_symmetry_Int_Tables_number   1
_chemical_formula_structural   Cu4Ni3C19
_chemical_formula_sum   'Cu8 Ni6 C38'
_cell_volume   665.96272183
_cell_formula_units_Z   2
loop_
 _symmetry_equiv_pos_site_id
 _symmetry_equiv_pos_as_xyz
  1  'x, y, z'
loop_
 _atom_site_type_symbol
 _atom_site_label
 _atom_site_symmetry_multiplicity
 _atom_site_fract_x
 _atom_site_fract_y
 _atom_site_fract_z
 _atom_site_occupancy
  C  C0  1  0.57148600  0.74007400  0.73796900  1
  C  C1  1  0.74007400  0.57148600  0.23796900  1
  C  C2  1  0.50000000  0.00000000  0.50000000  1
  C  C3  1  0.00000000  0.50000000  0.00000000  1
  C  C4  1  0.25992600  0.42851400  0.76203100  1
  C  C5  1  0.42851400  0.25992600  0.26203100  1
  Ni  Ni6  1  0.32278200  0.95540200  0.99079200  1
  Ni  Ni7  1  0.95540200  0.32278200  0.49079200  1
  Ni  Ni8  1  0.04459800  0.67721800  0.50920800  1
  Ni  Ni9  1  0.67721800  0.04459800  0.00920800  1
  Ni  Ni10  1  0.64371600  0.35628400  0.75000000  1
  Ni  Ni11  1  0.35628400  0.64371600  0.25000000  1
  Cu  Cu12  1  0.75629100  0.37608900  0.00630500  1
  Cu  Cu13  1  0.37608900  0.75629100  0.50630500  1
  Cu  Cu14  1  0.13438600  0.24855900  0.74185100  1
  Cu  Cu15  1  0.24855900  0.13438600  0.24185100  1
  Cu  Cu16  1  0.75144100  0.86561400  0.75814900  1
  Cu  Cu17  1  0.86561400  0.75144100  0.25814900  1
  Cu  Cu18  1  0.62391100  0.24370900  0.49369500  1
  Cu  Cu19  1  0.24370900  0.62391100  0.99369500  1
  C  C20  1  0.77539500  0.20641300  0.96858800  1
  C  C21  1  0.20641300  0.77539500  0.46858800  1
  C  C22  1  0.47574000  0.65661900  0.63382900  1
  C  C23  1  0.61940200  0.55535100  0.90561100  1
  C  C24  1  0.65661900  0.47574000  0.13382900  1
  C  C25  1  0.55535100  0.61940200  0.40561100  1
  C  C26  1  0.98126600  0.26979900  0.00553800  1
  C  C27  1  0.91062600  0.35102300  0.71377500  1
  C  C28  1  0.26979900  0.98126600  0.50553800  1
  C  C29  1  0.27978200  0.01331800  0.78164100  1
  C  C30  1  0.35102300  0.91062600  0.21377500  1
  C  C31  1  0.01331800  0.27978200  0.28164100  1
  C  C32  1  0.72112500  0.80568000  0.88445300  1
  C  C33  1  0.65277900  0.85517900  0.65806100  1
  C  C34  1  0.80568000  0.72112500  0.38445300  1
  C  C35  1  0.85517900  0.65277900  0.15806100  1
  C  C36  1  0.14482100  0.34722100  0.84193900  1
  C  C37  1  0.19432000  0.27887500  0.61554700  1
  C  C38  1  0.34722100  0.14482100  0.34193900  1
  C  C39  1  0.27887500  0.19432000  0.11554700  1
  C  C40  1  0.98668200  0.72021800  0.71835900  1
  C  C41  1  0.64897700  0.08937400  0.78622500  1
  C  C42  1  0.72021800  0.98668200  0.21835900  1
  C  C43  1  0.73020100  0.01873400  0.49446200  1
  C  C44  1  0.08937400  0.64897700  0.28622500  1
  C  C45  1  0.01873400  0.73020100  0.99446200  1
  C  C46  1  0.44464900  0.38059800  0.59438900  1
  C  C47  1  0.34338100  0.52426000  0.86617100  1
  C  C48  1  0.38059800  0.44464900  0.09438900  1
  C  C49  1  0.52426000  0.34338100  0.36617100  1
  C  C50  1  0.79358700  0.22460500  0.53141200  1
  C  C51  1  0.22460500  0.79358700  0.03141200  1
