# generated using pymatgen
data_Cu10Ni3C4
_symmetry_space_group_name_H-M   'P 1'
_cell_length_a   11.44596327
_cell_length_b   11.44596327
_cell_length_c   11.71058000
_cell_angle_alpha   90.00000000
_cell_angle_beta   90.00000000
_cell_angle_gamma   124.79860368
_symmetry_Int_Tables_number   1
_chemical_formula_structural   Cu10Ni3C4
_chemical_formula_sum   'Cu40 Ni12 C16'
_cell_volume   1259.83171139
_cell_formula_units_Z   4
loop_
 _symmetry_equiv_pos_site_id
 _symmetry_equiv_pos_as_xyz
  1  'x, y, z'
loop_
 _atom_site_type_symbol
 _atom_site_label
 _atom_site_symmetry_multiplicity
 _atom_site_fract_x
 _atom_site_fract_y
 _atom_site_fract_z
 _atom_site_occupancy
  C  C0  1  0.03600300  0.96107600  0.59088600  1
  C  C1  1  0.96107600  0.03600300  0.40911400  1
  C  C2  1  0.53600300  0.46107600  0.90911400  1
  C  C3  1  0.46107600  0.53600300  0.09088600  1
  C  C4  1  0.04179600  0.97798500  0.90380300  1
  C  C5  1  0.97798500  0.04179600  0.09619700  1
  C  C6  1  0.54179600  0.47798500  0.59619700  1
  C  C7  1  0.47798500  0.54179600  0.40380300  1
  C  C8  1  0.21142900  0.82823800  0.76374700  1
  C  C9  1  0.82823800  0.21142900  0.23625300  1
  C  C10  1  0.71142900  0.32823800  0.73625300  1
  C  C11  1  0.32823800  0.71142900  0.26374700  1
  C  C12  1  0.37823600  0.74339500  0.76284100  1
  C  C13  1  0.74339500  0.37823600  0.23715900  1
  C  C14  1  0.87823600  0.24339500  0.73715900  1
  C  C15  1  0.24339500  0.87823600  0.26284100  1
  Ni  Ni16  1  0.66509000  0.78723300  0.78051400  1
  Ni  Ni17  1  0.78723300  0.66509000  0.21948600  1
  Ni  Ni18  1  0.16509000  0.28723300  0.71948600  1
  Ni  Ni19  1  0.28723300  0.16509000  0.28051400  1
  Ni  Ni20  1  0.91325600  0.56583800  0.96302700  1
  Ni  Ni21  1  0.56583800  0.91325600  0.03697300  1
  Ni  Ni22  1  0.41325600  0.06583800  0.53697300  1
  Ni  Ni23  1  0.06583800  0.41325600  0.46302700  1
  Ni  Ni24  1  0.08926200  0.38047500  0.00035200  1
  Ni  Ni25  1  0.38047500  0.08926200  0.99964800  1
  Ni  Ni26  1  0.58926200  0.88047500  0.49964800  1
  Ni  Ni27  1  0.88047500  0.58926200  0.50035200  1
  Cu  Cu28  1  0.10565300  0.92975800  0.75032600  1
  Cu  Cu29  1  0.92975800  0.10565300  0.24967400  1
  Cu  Cu30  1  0.60565300  0.42975800  0.74967400  1
  Cu  Cu31  1  0.42975800  0.60565300  0.25032600  1
  Cu  Cu32  1  0.53115500  0.68252500  0.75398600  1
  Cu  Cu33  1  0.68252500  0.53115500  0.24601400  1
  Cu  Cu34  1  0.03115500  0.18252500  0.74601400  1
  Cu  Cu35  1  0.18252500  0.03115500  0.25398600  1
  Cu  Cu36  1  0.75582000  0.76233500  0.76081400  1
  Cu  Cu37  1  0.76233500  0.75582000  0.23918600  1
  Cu  Cu38  1  0.25582000  0.26233500  0.73918600  1
  Cu  Cu39  1  0.26233500  0.25582000  0.26081400  1
  Cu  Cu40  1  0.69069900  0.89855500  0.82338000  1
  Cu  Cu41  1  0.89855500  0.69069900  0.17662000  1
  Cu  Cu42  1  0.19069900  0.39855500  0.67662000  1
  Cu  Cu43  1  0.39855500  0.19069900  0.32338000  1
  Cu  Cu44  1  0.01922900  0.58899400  0.01492600  1
  Cu  Cu45  1  0.58899400  0.01922900  0.98507400  1
  Cu  Cu46  1  0.51922900  0.08899400  0.48507400  1
  Cu  Cu47  1  0.08899400  0.51922900  0.51492600  1
  Cu  Cu48  1  0.78844100  0.46664800  0.99457100  1
  Cu  Cu49  1  0.46664800  0.78844100  0.00542900  1
  Cu  Cu50  1  0.28844100  0.96664800  0.50542900  1
  Cu  Cu51  1  0.96664800  0.28844100  0.49457100  1
  Cu  Cu52  1  0.92625100  0.63903100  0.87700700  1
  Cu  Cu53  1  0.63903100  0.92625100  0.12299300  1
  Cu  Cu54  1  0.42625100  0.13903100  0.62299300  1
  Cu  Cu55  1  0.13903100  0.42625100  0.37700700  1
  Cu  Cu56  1  0.95706300  0.28129400  0.99499300  1
  Cu  Cu57  1  0.28129400  0.95706300  0.00500700  1
  Cu  Cu58  1  0.45706300  0.78129400  0.50500700  1
  Cu  Cu59  1  0.78129400  0.45706300  0.49499300  1
  Cu  Cu60  1  0.15619400  0.44447700  0.91145700  1
  Cu  Cu61  1  0.44447700  0.15619400  0.08854300  1
  Cu  Cu62  1  0.65619400  0.94447700  0.58854300  1
  Cu  Cu63  1  0.94447700  0.65619400  0.41145700  1
  Cu  Cu64  1  0.15097800  0.41078900  0.09612700  1
  Cu  Cu65  1  0.41078900  0.15097800  0.90387300  1
  Cu  Cu66  1  0.65097800  0.91078900  0.40387300  1
  Cu  Cu67  1  0.91078900  0.65097800  0.59612700  1
