# generated using pymatgen
data_CuNiC5
_symmetry_space_group_name_H-M   'P 1'
_cell_length_a   8.49008713
_cell_length_b   8.49008713
_cell_length_c   5.99055394
_cell_angle_alpha   89.28184321
_cell_angle_beta   89.28184321
_cell_angle_gamma   149.40263327
_symmetry_Int_Tables_number   1
_chemical_formula_structural   CuNiC5
_chemical_formula_sum   'Cu2 Ni2 C10'
_cell_volume   219.54324365
_cell_formula_units_Z   2
loop_
 _symmetry_equiv_pos_site_id
 _symmetry_equiv_pos_as_xyz
  1  'x, y, z'
loop_
 _atom_site_type_symbol
 _atom_site_label
 _atom_site_symmetry_multiplicity
 _atom_site_fract_x
 _atom_site_fract_y
 _atom_site_fract_z
 _atom_site_occupancy
  Ni  Ni0  1  0.32749900  0.67250100  0.75000000  1
  Ni  Ni1  1  0.67250100  0.32749900  0.25000000  1
  Cu  Cu2  1  0.07336800  0.92663200  0.75000000  1
  Cu  Cu3  1  0.92663200  0.07336800  0.25000000  1
  C  C4  1  0.73910700  0.80795000  0.59173000  1
  C  C5  1  0.80795000  0.73910700  0.09173000  1
  C  C6  1  0.80481100  0.17113000  0.01175400  1
  C  C7  1  0.61739800  0.38260200  0.75000000  1
  C  C8  1  0.82887000  0.19518900  0.48824600  1
  C  C9  1  0.17113000  0.80481100  0.51175400  1
  C  C10  1  0.38260200  0.61739800  0.25000000  1
  C  C11  1  0.19518900  0.82887000  0.98824600  1
  C  C12  1  0.19205000  0.26089300  0.90827000  1
  C  C13  1  0.26089300  0.19205000  0.40827000  1
