# generated using pymatgen
data_Cu12Ni3C
_symmetry_space_group_name_H-M   'P 1'
_cell_length_a   9.79823650
_cell_length_b   9.79823650
_cell_length_c   9.79823651
_cell_angle_alpha   51.55075428
_cell_angle_beta   51.55075428
_cell_angle_gamma   51.55075695
_symmetry_Int_Tables_number   1
_chemical_formula_structural   Cu12Ni3C
_chemical_formula_sum   'Cu24 Ni6 C2'
_cell_volume   532.86577377
_cell_formula_units_Z   2
loop_
 _symmetry_equiv_pos_site_id
 _symmetry_equiv_pos_as_xyz
  1  'x, y, z'
loop_
 _atom_site_type_symbol
 _atom_site_label
 _atom_site_symmetry_multiplicity
 _atom_site_fract_x
 _atom_site_fract_y
 _atom_site_fract_z
 _atom_site_occupancy
  C  C0  1  0.94140600  0.94140600  0.94140600  1
  C  C1  1  0.44140600  0.44140600  0.44140600  1
  Ni  Ni2  1  0.65434100  0.03251000  0.31230600  1
  Ni  Ni3  1  0.53251000  0.15434100  0.81230600  1
  Ni  Ni4  1  0.81230600  0.53251000  0.15434100  1
  Ni  Ni5  1  0.03251000  0.31230600  0.65434100  1
  Ni  Ni6  1  0.31230600  0.65434100  0.03251000  1
  Ni  Ni7  1  0.15434100  0.81230600  0.53251000  1
  Cu  Cu8  1  0.92460300  0.25360100  0.86120000  1
  Cu  Cu9  1  0.71117400  0.11520700  0.79876500  1
  Cu  Cu10  1  0.99723600  0.42895200  0.05329400  1
  Cu  Cu11  1  0.60671700  0.07853000  0.16764700  1
  Cu  Cu12  1  0.57853000  0.10671700  0.66764700  1
  Cu  Cu13  1  0.92895200  0.49723600  0.55329400  1
  Cu  Cu14  1  0.61520700  0.21117400  0.29876500  1
  Cu  Cu15  1  0.42895200  0.05329400  0.99723600  1
  Cu  Cu16  1  0.75360100  0.42460300  0.36120000  1
  Cu  Cu17  1  0.79876500  0.71117400  0.11520700  1
  Cu  Cu18  1  0.66764700  0.57853000  0.10671700  1
  Cu  Cu19  1  0.42460300  0.36120000  0.75360100  1
  Cu  Cu20  1  0.49723600  0.55329400  0.92895200  1
  Cu  Cu21  1  0.86120000  0.92460300  0.25360100  1
  Cu  Cu22  1  0.07853000  0.16764700  0.60671700  1
  Cu  Cu23  1  0.21117400  0.29876500  0.61520700  1
  Cu  Cu24  1  0.29876500  0.61520700  0.21117400  1
  Cu  Cu25  1  0.55329400  0.92895200  0.49723600  1
  Cu  Cu26  1  0.36120000  0.75360100  0.42460300  1
  Cu  Cu27  1  0.16764700  0.60671700  0.07853000  1
  Cu  Cu28  1  0.10671700  0.66764700  0.57853000  1
  Cu  Cu29  1  0.25360100  0.86120000  0.92460300  1
  Cu  Cu30  1  0.11520700  0.79876500  0.71117400  1
  Cu  Cu31  1  0.05329400  0.99723600  0.42895200  1
