# generated using pymatgen
data_Cu3NiC10
_symmetry_space_group_name_H-M   'P 1'
_cell_length_a   8.60551100
_cell_length_b   8.60551100
_cell_length_c   8.60551100
_cell_angle_alpha   90.00000000
_cell_angle_beta   90.00000000
_cell_angle_gamma   90.00000000
_symmetry_Int_Tables_number   1
_chemical_formula_structural   Cu3NiC10
_chemical_formula_sum   'Cu12 Ni4 C40'
_cell_volume   637.27956442
_cell_formula_units_Z   4
loop_
 _symmetry_equiv_pos_site_id
 _symmetry_equiv_pos_as_xyz
  1  'x, y, z'
loop_
 _atom_site_type_symbol
 _atom_site_label
 _atom_site_symmetry_multiplicity
 _atom_site_fract_x
 _atom_site_fract_y
 _atom_site_fract_z
 _atom_site_occupancy
  C  C0  1  0.99951600  0.99951600  0.99951600  1
  C  C1  1  0.25048400  0.25048400  0.25048400  1
  C  C2  1  0.24951600  0.74951600  0.75048400  1
  C  C3  1  0.50048400  0.00048400  0.49951600  1
  C  C4  1  0.49951600  0.50048400  0.00048400  1
  C  C5  1  0.75048400  0.24951600  0.74951600  1
  C  C6  1  0.74951600  0.75048400  0.24951600  1
  C  C7  1  0.00048400  0.49951600  0.50048400  1
  Ni  Ni8  1  0.12500000  0.87500000  0.37500000  1
  Ni  Ni9  1  0.37500000  0.12500000  0.87500000  1
  Ni  Ni10  1  0.62500000  0.62500000  0.62500000  1
  Ni  Ni11  1  0.87500000  0.37500000  0.12500000  1
  Cu  Cu12  1  0.11791900  0.13208100  0.62500000  1
  Cu  Cu13  1  0.12500000  0.38208100  0.86791900  1
  Cu  Cu14  1  0.13208100  0.62500000  0.11791900  1
  Cu  Cu15  1  0.36791900  0.37500000  0.61791900  1
  Cu  Cu16  1  0.37500000  0.61791900  0.36791900  1
  Cu  Cu17  1  0.38208100  0.86791900  0.12500000  1
  Cu  Cu18  1  0.61791900  0.36791900  0.37500000  1
  Cu  Cu19  1  0.62500000  0.11791900  0.13208100  1
  Cu  Cu20  1  0.63208100  0.87500000  0.88208100  1
  Cu  Cu21  1  0.86791900  0.12500000  0.38208100  1
  Cu  Cu22  1  0.87500000  0.88208100  0.63208100  1
  Cu  Cu23  1  0.88208100  0.63208100  0.87500000  1
  C  C24  1  0.11210500  0.11067700  0.38425500  1
  C  C25  1  0.11574500  0.88789500  0.61067700  1
  C  C26  1  0.11471200  0.61471200  0.88528800  1
  C  C27  1  0.13932300  0.13789500  0.86574500  1
  C  C28  1  0.11067700  0.38425500  0.11210500  1
  C  C29  1  0.13528800  0.36471200  0.63528800  1
  C  C30  1  0.13425500  0.63932300  0.36210500  1
  C  C31  1  0.13789500  0.86574500  0.13932300  1
  C  C32  1  0.36210500  0.13425500  0.63932300  1
  C  C33  1  0.36574500  0.36067700  0.86210500  1
  C  C34  1  0.36471200  0.63528800  0.13528800  1
  C  C35  1  0.38932300  0.61574500  0.61210500  1
  C  C36  1  0.36067700  0.86210500  0.36574500  1
  C  C37  1  0.38528800  0.38528800  0.38528800  1
  C  C38  1  0.38425500  0.11210500  0.11067700  1
  C  C39  1  0.38789500  0.88932300  0.88425500  1
  C  C40  1  0.61210500  0.38932300  0.61574500  1
  C  C41  1  0.61574500  0.61210500  0.38932300  1
  C  C42  1  0.61471200  0.88528800  0.11471200  1
  C  C43  1  0.63932300  0.36210500  0.13425500  1
  C  C44  1  0.61067700  0.11574500  0.88789500  1
  C  C45  1  0.63528800  0.13528800  0.36471200  1
  C  C46  1  0.63425500  0.86067700  0.63789500  1
  C  C47  1  0.63789500  0.63425500  0.86067700  1
  C  C48  1  0.86210500  0.36574500  0.36067700  1
  C  C49  1  0.86574500  0.13932300  0.13789500  1
  C  C50  1  0.86471200  0.86471200  0.86471200  1
  C  C51  1  0.88932300  0.88425500  0.38789500  1
  C  C52  1  0.86067700  0.63789500  0.63425500  1
  C  C53  1  0.88528800  0.11471200  0.61471200  1
  C  C54  1  0.88425500  0.38789500  0.88932300  1
  C  C55  1  0.88789500  0.61067700  0.11574500  1
