# generated using pymatgen
data_Cu3(NiC8)2
_symmetry_space_group_name_H-M   'P 1'
_cell_length_a   9.27184600
_cell_length_b   9.06058500
_cell_length_c   15.31640131
_cell_angle_alpha   55.05048233
_cell_angle_beta   90.00000000
_cell_angle_gamma   90.00000000
_symmetry_Int_Tables_number   1
_chemical_formula_structural   Cu3(NiC8)2
_chemical_formula_sum   'Cu12 Ni8 C64'
_cell_volume   1054.65736035
_cell_formula_units_Z   4
loop_
 _symmetry_equiv_pos_site_id
 _symmetry_equiv_pos_as_xyz
  1  'x, y, z'
loop_
 _atom_site_type_symbol
 _atom_site_label
 _atom_site_symmetry_multiplicity
 _atom_site_fract_x
 _atom_site_fract_y
 _atom_site_fract_z
 _atom_site_occupancy
  C  C0  1  0.91938000  0.63058400  0.80110400  1
  C  C1  1  0.48412300  0.28351800  0.14895600  1
  C  C2  1  0.32814200  0.85408700  0.53634200  1
  C  C3  1  0.22482900  0.99964100  0.31099900  1
  C  C4  1  0.72482900  0.00035900  0.18900100  1
  C  C5  1  0.82814200  0.14591300  0.96365800  1
  C  C6  1  0.41938000  0.36941600  0.69889600  1
  C  C7  1  0.98412300  0.71648200  0.35104400  1
  C  C8  1  0.01587700  0.28351800  0.64895600  1
  C  C9  1  0.58062000  0.63058400  0.30110400  1
  C  C10  1  0.17185800  0.85408700  0.03634200  1
  C  C11  1  0.27517100  0.99964100  0.81099900  1
  C  C12  1  0.77517100  0.00035900  0.68900100  1
  C  C13  1  0.67185800  0.14591300  0.46365800  1
  C  C14  1  0.51587700  0.71648200  0.85104400  1
  C  C15  1  0.08062000  0.36941600  0.19889600  1
  Ni  Ni16  1  0.97604700  0.63585700  0.61044300  1
  Ni  Ni17  1  0.47604700  0.36414300  0.88955700  1
  Ni  Ni18  1  0.52395300  0.63585700  0.11044300  1
  Ni  Ni19  1  0.02395300  0.36414300  0.38955700  1
  Ni  Ni20  1  0.03665300  0.13288600  0.11702400  1
  Ni  Ni21  1  0.53665300  0.86711400  0.38297600  1
  Ni  Ni22  1  0.46334700  0.13288600  0.61702400  1
  Ni  Ni23  1  0.96334700  0.86711400  0.88297600  1
  Cu  Cu24  1  0.74819600  0.44012500  0.00947300  1
  Cu  Cu25  1  0.62579100  0.72685800  0.65709500  1
  Cu  Cu26  1  0.88869900  0.02613900  0.36159100  1
  Cu  Cu27  1  0.12579100  0.27314200  0.84290500  1
  Cu  Cu28  1  0.38869900  0.97386100  0.13840900  1
  Cu  Cu29  1  0.24819600  0.55987500  0.49052700  1
  Cu  Cu30  1  0.75180400  0.44012500  0.50947300  1
  Cu  Cu31  1  0.61130100  0.02613900  0.86159100  1
  Cu  Cu32  1  0.87420900  0.72685800  0.15709500  1
  Cu  Cu33  1  0.11130100  0.97386100  0.63840900  1
  Cu  Cu34  1  0.37420900  0.27314200  0.34290500  1
  Cu  Cu35  1  0.25180400  0.55987500  0.99052700  1
  C  C36  1  0.33894800  0.56128100  0.89149100  1
  C  C37  1  0.13219000  0.84758700  0.58770400  1
  C  C38  1  0.12338500  0.39362300  0.05896000  1
  C  C39  1  0.41009200  0.13765100  0.29825200  1
  C  C40  1  0.62767100  0.48999400  0.90570900  1
  C  C41  1  0.81583400  0.70999900  0.65863300  1
  C  C42  1  0.56647400  0.84818800  0.52749000  1
  C  C43  1  0.02116000  0.12082100  0.26157200  1
  C  C44  1  0.72554100  0.02193600  0.30800100  1
  C  C45  1  0.81769000  0.22348400  0.06109700  1
  C  C46  1  0.52372600  0.52643100  0.72950300  1
  C  C47  1  0.94480300  0.79927700  0.45273700  1
  C  C48  1  0.02372600  0.47356900  0.77049700  1
  C  C49  1  0.44480300  0.20072300  0.04726300  1
  C  C50  1  0.31769000  0.77651600  0.43890300  1
  C  C51  1  0.22554100  0.97806400  0.19199900  1
  C  C52  1  0.06647400  0.15181200  0.97251000  1
  C  C53  1  0.52116000  0.87917900  0.23842800  1
  C  C54  1  0.31583400  0.29000100  0.84136700  1
  C  C55  1  0.12767100  0.51000600  0.59429100  1
  C  C56  1  0.63219000  0.15241300  0.91229600  1
  C  C57  1  0.83894800  0.43871900  0.60850900  1
  C  C58  1  0.91009200  0.86234900  0.20174800  1
  C  C59  1  0.62338500  0.60637700  0.44104000  1
  C  C60  1  0.37661500  0.39362300  0.55896000  1
  C  C61  1  0.08990800  0.13765100  0.79825200  1
  C  C62  1  0.16105200  0.56128100  0.39149100  1
  C  C63  1  0.36781000  0.84758700  0.08770400  1
  C  C64  1  0.87232900  0.48999400  0.40570900  1
  C  C65  1  0.68416600  0.70999900  0.15863300  1
  C  C66  1  0.47884000  0.12082100  0.76157200  1
  C  C67  1  0.93352600  0.84818800  0.02749000  1
  C  C68  1  0.77445900  0.02193600  0.80800100  1
  C  C69  1  0.68231000  0.22348400  0.56109700  1
  C  C70  1  0.55519700  0.79927700  0.95273700  1
  C  C71  1  0.97627400  0.52643100  0.22950300  1
  C  C72  1  0.05519700  0.20072300  0.54726300  1
  C  C73  1  0.47627400  0.47356900  0.27049700  1
  C  C74  1  0.18231000  0.77651600  0.93890300  1
  C  C75  1  0.27445900  0.97806400  0.69199900  1
  C  C76  1  0.97884000  0.87917900  0.73842800  1
  C  C77  1  0.43352600  0.15181200  0.47251000  1
  C  C78  1  0.18416600  0.29000100  0.34136700  1
  C  C79  1  0.37232900  0.51000600  0.09429100  1
  C  C80  1  0.58990800  0.86234900  0.70174800  1
  C  C81  1  0.87661500  0.60637700  0.94104000  1
  C  C82  1  0.86781000  0.15241300  0.41229600  1
  C  C83  1  0.66105200  0.43871900  0.10850900  1
