# generated using pymatgen
data_Cu2Ni3C19
_symmetry_space_group_name_H-M   'P 1'
_cell_length_a   5.96669700
_cell_length_b   7.85626947
_cell_length_c   9.67442809
_cell_angle_alpha   82.89004518
_cell_angle_beta   80.69888104
_cell_angle_gamma   77.89990987
_symmetry_Int_Tables_number   1
_chemical_formula_structural   Cu2Ni3C19
_chemical_formula_sum   'Cu4 Ni6 C38'
_cell_volume   435.68990173
_cell_formula_units_Z   2
loop_
 _symmetry_equiv_pos_site_id
 _symmetry_equiv_pos_as_xyz
  1  'x, y, z'
loop_
 _atom_site_type_symbol
 _atom_site_label
 _atom_site_symmetry_multiplicity
 _atom_site_fract_x
 _atom_site_fract_y
 _atom_site_fract_z
 _atom_site_occupancy
  C  C0  1  0.84283000  0.65490100  0.99961300  1
  C  C1  1  0.15717000  0.34509900  0.00038700  1
  Ni  Ni2  1  0.66398900  0.83368100  0.49763900  1
  Ni  Ni3  1  0.83576200  0.16613900  0.50109100  1
  Ni  Ni4  1  0.16423800  0.83386100  0.49890900  1
  Ni  Ni5  1  0.00000000  0.50000000  0.50000000  1
  Ni  Ni6  1  0.33601100  0.16631900  0.50236100  1
  Ni  Ni7  1  0.50000000  0.50000000  0.50000000  1
  Cu  Cu8  1  0.66884300  0.33888300  0.00237100  1
  Cu  Cu9  1  0.00000000  0.00000000  0.00000000  1
  Cu  Cu10  1  0.50000000  0.00000000  0.00000000  1
  Cu  Cu11  1  0.33115700  0.66111700  0.99762900  1
  C  C12  1  0.82256500  0.92191000  0.79625800  1
  C  C13  1  0.67096700  0.08240300  0.21302900  1
  C  C14  1  0.98256400  0.23905300  0.79487800  1
  C  C15  1  0.82174200  0.41409600  0.20933400  1
  C  C16  1  0.32903300  0.91759700  0.78697100  1
  C  C17  1  0.17825800  0.58590400  0.79066600  1
  C  C18  1  0.17743500  0.07809000  0.20374200  1
  C  C19  1  0.01743600  0.76094700  0.20512200  1
  C  C20  1  0.50332900  0.24100300  0.80077000  1
  C  C21  1  0.35458400  0.42860800  0.20959900  1
  C  C22  1  0.64541600  0.57139200  0.79040100  1
  C  C23  1  0.49667100  0.75899700  0.19923000  1
  C  C24  1  0.69594100  0.59804200  0.60329800  1
  C  C25  1  0.86011400  0.92751500  0.59909600  1
  C  C26  1  0.79766700  0.91660700  0.89970700  1
  C  C27  1  0.69632500  0.09334900  0.10741400  1
  C  C28  1  0.05265700  0.27578000  0.60939800  1
  C  C29  1  0.95077200  0.22325400  0.89884600  1
  C  C30  1  0.80190600  0.40332700  0.40156900  1
  C  C31  1  0.84837300  0.41611100  0.10703100  1
  C  C32  1  0.30367500  0.90665100  0.89258600  1
  C  C33  1  0.15162700  0.58388900  0.89296900  1
  C  C34  1  0.19809400  0.59667300  0.59843100  1
  C  C35  1  0.38172800  0.94293000  0.61009900  1
  C  C36  1  0.94734300  0.72422000  0.39060200  1
  C  C37  1  0.04922800  0.77674600  0.10115400  1
  C  C38  1  0.20233300  0.08339300  0.10029300  1
  C  C39  1  0.13988600  0.07248500  0.40090400  1
  C  C40  1  0.48542900  0.22553300  0.90412100  1
  C  C41  1  0.53221400  0.26658900  0.60122400  1
  C  C42  1  0.38055400  0.44222100  0.10600500  1
  C  C43  1  0.30405900  0.40195800  0.39670200  1
  C  C44  1  0.61944600  0.55777900  0.89399500  1
  C  C45  1  0.61827200  0.05707000  0.38990100  1
  C  C46  1  0.51457100  0.77446700  0.09587900  1
  C  C47  1  0.46778600  0.73341100  0.39877600  1
