# generated using pymatgen
data_CuNiC5
_symmetry_space_group_name_H-M   'P 1'
_cell_length_a   5.60703646
_cell_length_b   5.91912086
_cell_length_c   7.94084400
_cell_angle_alpha   89.99988580
_cell_angle_beta   89.99999490
_cell_angle_gamma   89.99998593
_symmetry_Int_Tables_number   1
_chemical_formula_structural   CuNiC5
_chemical_formula_sum   'Cu4 Ni4 C20'
_cell_volume   263.54649934
_cell_formula_units_Z   4
loop_
 _symmetry_equiv_pos_site_id
 _symmetry_equiv_pos_as_xyz
  1  'x, y, z'
loop_
 _atom_site_type_symbol
 _atom_site_label
 _atom_site_symmetry_multiplicity
 _atom_site_fract_x
 _atom_site_fract_y
 _atom_site_fract_z
 _atom_site_occupancy
  C  C0  1  0.75000100  0.74999500  0.25000000  1
  C  C1  1  0.25000100  0.25000100  0.74999900  1
  C  C2  1  0.25000100  0.74999500  0.25000000  1
  C  C3  1  0.75000000  0.25000200  0.75000000  1
  Ni  Ni4  1  0.49999000  0.00002400  0.00000600  1
  Ni  Ni5  1  0.99997900  0.00000200  0.49999700  1
  Ni  Ni6  1  0.00001800  0.49999300  0.50000000  1
  Ni  Ni7  1  0.50000100  0.50001200  0.99999800  1
  Cu  Cu8  1  0.99999900  0.25000200  0.13339200  1
  Cu  Cu9  1  0.50000100  0.74999700  0.63339200  1
  Cu  Cu10  1  0.99999900  0.74999700  0.86660800  1
  Cu  Cu11  1  0.50000000  0.25000200  0.36660800  1
  C  C12  1  0.00000100  0.48220900  0.24897400  1
  C  C13  1  0.50000000  0.98220800  0.74897300  1
  C  C14  1  0.00000100  0.01778800  0.24897200  1
  C  C15  1  0.50000100  0.51778700  0.74897400  1
  C  C16  1  0.00000100  0.98220900  0.75102800  1
  C  C17  1  0.50000200  0.48220900  0.25102700  1
  C  C18  1  0.00000200  0.51778700  0.75102500  1
  C  C19  1  0.50000100  0.01778800  0.25103000  1
  C  C20  1  0.74292000  0.74999100  0.50623800  1
  C  C21  1  0.24291900  0.25000700  0.00623800  1
  C  C22  1  0.25708000  0.74999100  0.50623700  1
  C  C23  1  0.75708000  0.25000700  0.00623800  1
  C  C24  1  0.74292000  0.25000600  0.49376200  1
  C  C25  1  0.24292200  0.74999200  0.99376100  1
  C  C26  1  0.25708100  0.25000500  0.49376200  1
  C  C27  1  0.75708000  0.74999300  0.99376100  1
