# generated using pymatgen
data_CuNiC3
_symmetry_space_group_name_H-M   'P 1'
_cell_length_a   5.69193100
_cell_length_b   5.95207200
_cell_length_c   8.43528200
_cell_angle_alpha   90.00000000
_cell_angle_beta   90.00000000
_cell_angle_gamma   90.00000000
_symmetry_Int_Tables_number   1
_chemical_formula_structural   CuNiC3
_chemical_formula_sum   'Cu4 Ni4 C12'
_cell_volume   285.77708953
_cell_formula_units_Z   4
loop_
 _symmetry_equiv_pos_site_id
 _symmetry_equiv_pos_as_xyz
  1  'x, y, z'
loop_
 _atom_site_type_symbol
 _atom_site_label
 _atom_site_symmetry_multiplicity
 _atom_site_fract_x
 _atom_site_fract_y
 _atom_site_fract_z
 _atom_site_occupancy
  Ni  Ni0  1  0.01695000  0.94832400  0.75000000  1
  Ni  Ni1  1  0.48305000  0.44832400  0.75000000  1
  Ni  Ni2  1  0.51695000  0.55167600  0.25000000  1
  Ni  Ni3  1  0.98305000  0.05167600  0.25000000  1
  Cu  Cu4  1  0.00000000  0.50000000  0.00000000  1
  Cu  Cu5  1  0.00000000  0.50000000  0.50000000  1
  Cu  Cu6  1  0.50000000  0.00000000  0.00000000  1
  Cu  Cu7  1  0.50000000  0.00000000  0.50000000  1
  C  C8  1  0.14804300  0.42048700  0.25000000  1
  C  C9  1  0.18169300  0.18519500  0.57799600  1
  C  C10  1  0.18169300  0.18519500  0.92200400  1
  C  C11  1  0.31830700  0.68519500  0.92200400  1
  C  C12  1  0.31830700  0.68519500  0.57799600  1
  C  C13  1  0.35195700  0.92048700  0.25000000  1
  C  C14  1  0.64804300  0.07951300  0.75000000  1
  C  C15  1  0.68169300  0.31480500  0.07799600  1
  C  C16  1  0.68169300  0.31480500  0.42200400  1
  C  C17  1  0.81830700  0.81480500  0.07799600  1
  C  C18  1  0.81830700  0.81480500  0.42200400  1
  C  C19  1  0.85195700  0.57951300  0.75000000  1
