# generated using pymatgen
data_CuNi3C2
_symmetry_space_group_name_H-M   'P 1'
_cell_length_a   4.69800788
_cell_length_b   4.69800788
_cell_length_c   15.03249100
_cell_angle_alpha   90.00000000
_cell_angle_beta   90.00000000
_cell_angle_gamma   94.27848968
_symmetry_Int_Tables_number   1
_chemical_formula_structural   CuNi3C2
_chemical_formula_sum   'Cu5 Ni15 C10'
_cell_volume   330.86167039
_cell_formula_units_Z   5
loop_
 _symmetry_equiv_pos_site_id
 _symmetry_equiv_pos_as_xyz
  1  'x, y, z'
loop_
 _atom_site_type_symbol
 _atom_site_label
 _atom_site_symmetry_multiplicity
 _atom_site_fract_x
 _atom_site_fract_y
 _atom_site_fract_z
 _atom_site_occupancy
  C  C0  1  0.99728900  0.00271100  0.60059500  1
  C  C1  1  0.99728900  0.00271100  0.39940500  1
  C  C2  1  0.98503000  0.01497000  0.19922100  1
  C  C3  1  0.98332000  0.01668000  0.00000000  1
  C  C4  1  0.98503000  0.01497000  0.80077900  1
  C  C5  1  0.46331100  0.53668900  0.50000000  1
  C  C6  1  0.52036600  0.47963400  0.09968900  1
  C  C7  1  0.52598900  0.47401100  0.29986200  1
  C  C8  1  0.52036600  0.47963400  0.90031100  1
  C  C9  1  0.52598900  0.47401100  0.70013800  1
  Ni  Ni10  1  0.81550500  0.18449500  0.30202600  1
  Ni  Ni11  1  0.80979000  0.19021000  0.09997400  1
  Ni  Ni12  1  0.80979000  0.19021000  0.90002600  1
  Ni  Ni13  1  0.81550500  0.18449500  0.69797400  1
  Ni  Ni14  1  0.30166400  0.31176000  0.60091700  1
  Ni  Ni15  1  0.30166400  0.31176000  0.39908300  1
  Ni  Ni16  1  0.31250500  0.30203900  0.19923700  1
  Ni  Ni17  1  0.30822700  0.30704500  0.00000000  1
  Ni  Ni18  1  0.31250500  0.30203900  0.80076300  1
  Ni  Ni19  1  0.68824000  0.69833600  0.60091700  1
  Ni  Ni20  1  0.68824000  0.69833600  0.39908300  1
  Ni  Ni21  1  0.69796100  0.68749500  0.19923700  1
  Ni  Ni22  1  0.69295500  0.69177300  0.00000000  1
  Ni  Ni23  1  0.69796100  0.68749500  0.80076300  1
  Ni  Ni24  1  0.17324800  0.82675300  0.50000000  1
  Cu  Cu25  1  0.79548500  0.20451500  0.50000000  1
  Cu  Cu26  1  0.19174400  0.80825600  0.09889100  1
  Cu  Cu27  1  0.19564600  0.80435400  0.29687600  1
  Cu  Cu28  1  0.19564600  0.80435400  0.70312400  1
  Cu  Cu29  1  0.19174400  0.80825600  0.90110900  1
