# generated using pymatgen
data_Cu12Ni5C14
_symmetry_space_group_name_H-M   'P 1'
_cell_length_a   8.76697000
_cell_length_b   16.05650000
_cell_length_c   16.67141302
_cell_angle_alpha   77.01091613
_cell_angle_beta   90.00000000
_cell_angle_gamma   90.00000000
_symmetry_Int_Tables_number   1
_chemical_formula_structural   Cu12Ni5C14
_chemical_formula_sum   'Cu48 Ni20 C56'
_cell_volume   2286.73501737
_cell_formula_units_Z   4
loop_
 _symmetry_equiv_pos_site_id
 _symmetry_equiv_pos_as_xyz
  1  'x, y, z'
loop_
 _atom_site_type_symbol
 _atom_site_label
 _atom_site_symmetry_multiplicity
 _atom_site_fract_x
 _atom_site_fract_y
 _atom_site_fract_z
 _atom_site_occupancy
  C  C0  1  0.26602700  0.14096900  0.60946100  1
  C  C1  1  0.23397300  0.64096900  0.10946100  1
  C  C2  1  0.73397300  0.85903100  0.39053900  1
  C  C3  1  0.76602700  0.35903100  0.89053900  1
  Ni  Ni4  1  0.16626900  0.97861600  0.77528700  1
  Ni  Ni5  1  0.33373100  0.47861600  0.27528700  1
  Ni  Ni6  1  0.83373100  0.02138400  0.22471300  1
  Ni  Ni7  1  0.66626900  0.52138400  0.72471300  1
  Ni  Ni8  1  0.29553800  0.20373300  0.79542600  1
  Ni  Ni9  1  0.20446200  0.70373300  0.29542600  1
  Ni  Ni10  1  0.70446200  0.79626700  0.20457400  1
  Ni  Ni11  1  0.79553800  0.29626700  0.70457400  1
  Ni  Ni12  1  0.32856600  0.35689200  0.56348700  1
  Ni  Ni13  1  0.17143400  0.85689200  0.06348700  1
  Ni  Ni14  1  0.67143400  0.64310800  0.43651300  1
  Ni  Ni15  1  0.82856600  0.14310800  0.93651300  1
  Ni  Ni16  1  0.24613900  0.16652200  0.39512500  1
  Ni  Ni17  1  0.25386100  0.66652200  0.89512500  1
  Ni  Ni18  1  0.75386100  0.83347800  0.60487500  1
  Ni  Ni19  1  0.74613900  0.33347800  0.10487500  1
  Ni  Ni20  1  0.19970000  0.94108800  0.56937900  1
  Ni  Ni21  1  0.30030000  0.44108800  0.06937900  1
  Ni  Ni22  1  0.80030000  0.05891200  0.43062100  1
  Ni  Ni23  1  0.69970000  0.55891200  0.93062100  1
  Cu  Cu24  1  0.01658900  0.95119500  0.78210100  1
  Cu  Cu25  1  0.48341100  0.45119500  0.28210100  1
  Cu  Cu26  1  0.98341100  0.04880500  0.21789900  1
  Cu  Cu27  1  0.51658900  0.54880500  0.71789900  1
  Cu  Cu28  1  0.11693800  0.91325400  0.83817500  1
  Cu  Cu29  1  0.38306200  0.41325400  0.33817500  1
  Cu  Cu30  1  0.88306200  0.08674600  0.16182500  1
  Cu  Cu31  1  0.61693800  0.58674600  0.66182500  1
  Cu  Cu32  1  0.32120900  0.13973200  0.86004800  1
  Cu  Cu33  1  0.17879100  0.63973200  0.36004800  1
  Cu  Cu34  1  0.67879100  0.86026800  0.13995200  1
  Cu  Cu35  1  0.82120900  0.36026800  0.63995200  1
  Cu  Cu36  1  0.22811100  0.27651100  0.80318200  1
  Cu  Cu37  1  0.27188900  0.77651100  0.30318200  1
  Cu  Cu38  1  0.77188900  0.72348900  0.19681800  1
  Cu  Cu39  1  0.72811100  0.22348900  0.69681800  1
  Cu  Cu40  1  0.36773900  0.42958100  0.58918200  1
  Cu  Cu41  1  0.13226100  0.92958100  0.08918200  1
  Cu  Cu42  1  0.63226100  0.57041900  0.41081800  1
  Cu  Cu43  1  0.86773900  0.07041900  0.91081800  1
  Cu  Cu44  1  0.22162100  0.41655000  0.57417200  1
  Cu  Cu45  1  0.27837900  0.91655000  0.07417200  1
  Cu  Cu46  1  0.77837900  0.58345000  0.42582800  1
  Cu  Cu47  1  0.72162100  0.08345000  0.92582800  1
  Cu  Cu48  1  0.23389500  0.17385900  0.31146000  1
  Cu  Cu49  1  0.26610500  0.67385900  0.81146000  1
  Cu  Cu50  1  0.76610500  0.82614100  0.68854000  1
  Cu  Cu51  1  0.73389500  0.32614100  0.18854000  1
  Cu  Cu52  1  0.29509500  0.10326800  0.35736800  1
  Cu  Cu53  1  0.20490500  0.60326800  0.85736800  1
  Cu  Cu54  1  0.70490500  0.89673200  0.64263200  1
  Cu  Cu55  1  0.79509500  0.39673200  0.14263200  1
  Cu  Cu56  1  0.10733900  0.90093800  0.52648400  1
  Cu  Cu57  1  0.39266100  0.40093800  0.02648400  1
  Cu  Cu58  1  0.89266100  0.09906200  0.47351600  1
  Cu  Cu59  1  0.60733900  0.59906200  0.97351600  1
  Cu  Cu60  1  0.31919900  0.90201200  0.61097400  1
  Cu  Cu61  1  0.18080100  0.40201200  0.11097400  1
  Cu  Cu62  1  0.68080100  0.09798800  0.38902600  1
  Cu  Cu63  1  0.81919900  0.59798800  0.88902600  1
  Cu  Cu64  1  0.43979300  0.05788400  0.18161500  1
  Cu  Cu65  1  0.06020700  0.55788400  0.68161500  1
  Cu  Cu66  1  0.56020700  0.94211600  0.81838500  1
  Cu  Cu67  1  0.93979300  0.44211600  0.31838500  1
  Cu  Cu68  1  0.32616500  0.68837500  0.55474300  1
  Cu  Cu69  1  0.17383500  0.18837500  0.05474300  1
  Cu  Cu70  1  0.67383500  0.31162500  0.44525700  1
  Cu  Cu71  1  0.82616500  0.81162500  0.94525700  1
  C  C72  1  0.26644000  0.02458100  0.74057000  1
  C  C73  1  0.23356000  0.52458100  0.24057000  1
  C  C74  1  0.73356000  0.97541900  0.25943000  1
  C  C75  1  0.76644000  0.47541900  0.75943000  1
  C  C76  1  0.33356300  0.19653000  0.71978500  1
  C  C77  1  0.16643700  0.69653000  0.21978500  1
  C  C78  1  0.66643700  0.80347000  0.28021500  1
  C  C79  1  0.83356300  0.30347000  0.78021500  1
  C  C80  1  0.36476300  0.29025000  0.54671300  1
  C  C81  1  0.13523700  0.79025000  0.04671300  1
  C  C82  1  0.63523700  0.70975000  0.45328700  1
  C  C83  1  0.86476300  0.20975000  0.95328700  1
  C  C84  1  0.22741400  0.19541700  0.45529900  1
  C  C85  1  0.27258600  0.69541700  0.95529900  1
  C  C86  1  0.77258600  0.80458300  0.54470100  1
  C  C87  1  0.72741400  0.30458300  0.04470100  1
  C  C88  1  0.16793700  0.02102000  0.57497100  1
  C  C89  1  0.33206300  0.52102000  0.07497100  1
  C  C90  1  0.83206300  0.97898000  0.42502900  1
  C  C91  1  0.66793700  0.47898000  0.92502900  1
  C  C92  1  0.45334300  0.10556700  0.59009600  1
  C  C93  1  0.04665700  0.60556700  0.09009600  1
  C  C94  1  0.54665700  0.89443300  0.40990400  1
  C  C95  1  0.95334300  0.39443300  0.90990400  1
  C  C96  1  0.07748100  0.17876700  0.62334400  1
  C  C97  1  0.42251900  0.67876700  0.12334400  1
  C  C98  1  0.92251900  0.82123300  0.37665600  1
  C  C99  1  0.57748100  0.32123300  0.87665600  1
  C  C100  1  0.50009100  0.04407400  0.11745500  1
  C  C101  1  0.99990900  0.54407400  0.61745500  1
  C  C102  1  0.49990900  0.95592600  0.88254500  1
  C  C103  1  0.00009100  0.45592600  0.38254500  1
  C  C104  1  0.34404000  0.00649800  0.22042000  1
  C  C105  1  0.15596000  0.50649800  0.72042000  1
  C  C106  1  0.65596000  0.99350200  0.77958000  1
  C  C107  1  0.84404000  0.49350200  0.27958000  1
  C  C108  1  0.47764500  0.12374100  0.20570700  1
  C  C109  1  0.02235500  0.62374100  0.70570700  1
  C  C110  1  0.52235500  0.87625900  0.79429300  1
  C  C111  1  0.97764500  0.37625900  0.29429300  1
  C  C112  1  0.25620800  0.74080300  0.50021000  1
  C  C113  1  0.24379200  0.24080300  0.00021000  1
  C  C114  1  0.74379200  0.25919700  0.49979000  1
  C  C115  1  0.75620800  0.75919700  0.99979000  1
  C  C116  1  0.34922700  0.61332600  0.54662100  1
  C  C117  1  0.15077300  0.11332600  0.04662100  1
  C  C118  1  0.65077300  0.38667400  0.45337900  1
  C  C119  1  0.84922700  0.88667400  0.95337900  1
  C  C120  1  0.37312600  0.71074900  0.61794900  1
  C  C121  1  0.12687400  0.21074900  0.11794900  1
  C  C122  1  0.62687400  0.28925100  0.38205100  1
  C  C123  1  0.87312600  0.78925100  0.88205100  1
