# generated using pymatgen
data_Cu2NiC5
_symmetry_space_group_name_H-M   'P 1'
_cell_length_a   3.90032300
_cell_length_b   10.87613700
_cell_length_c   11.11020800
_cell_angle_alpha   90.00000000
_cell_angle_beta   90.00000000
_cell_angle_gamma   90.00000000
_symmetry_Int_Tables_number   1
_chemical_formula_structural   Cu2NiC5
_chemical_formula_sum   'Cu8 Ni4 C20'
_cell_volume   471.29999287
_cell_formula_units_Z   4
loop_
 _symmetry_equiv_pos_site_id
 _symmetry_equiv_pos_as_xyz
  1  'x, y, z'
loop_
 _atom_site_type_symbol
 _atom_site_label
 _atom_site_symmetry_multiplicity
 _atom_site_fract_x
 _atom_site_fract_y
 _atom_site_fract_z
 _atom_site_occupancy
  Ni  Ni0  1  0.25000000  0.20724400  0.14263200  1
  Ni  Ni1  1  0.75000000  0.29275600  0.64263200  1
  Ni  Ni2  1  0.25000000  0.70724400  0.35736800  1
  Ni  Ni3  1  0.75000000  0.79275600  0.85736800  1
  Cu  Cu4  1  0.25000000  0.07171400  0.78375700  1
  Cu  Cu5  1  0.25000000  0.14655000  0.45754300  1
  Cu  Cu6  1  0.75000000  0.35345000  0.95754300  1
  Cu  Cu7  1  0.75000000  0.42828600  0.28375700  1
  Cu  Cu8  1  0.25000000  0.57171400  0.71624300  1
  Cu  Cu9  1  0.25000000  0.64655000  0.04245700  1
  Cu  Cu10  1  0.75000000  0.85345000  0.54245700  1
  Cu  Cu11  1  0.75000000  0.92828600  0.21624300  1
  C  C12  1  0.25000000  0.00099600  0.60135400  1
  C  C13  1  0.25000000  0.06273800  0.18346400  1
  C  C14  1  0.75000000  0.23394100  0.13424900  1
  C  C15  1  0.75000000  0.19060700  0.75602700  1
  C  C16  1  0.25000000  0.24299400  0.99512100  1
  C  C17  1  0.75000000  0.25700600  0.49512100  1
  C  C18  1  0.25000000  0.30939300  0.25602700  1
  C  C19  1  0.25000000  0.26605900  0.63424900  1
  C  C20  1  0.75000000  0.43726200  0.68346400  1
  C  C21  1  0.75000000  0.49900400  0.10135400  1
  C  C22  1  0.25000000  0.50099600  0.89864600  1
  C  C23  1  0.25000000  0.56273800  0.31653600  1
  C  C24  1  0.75000000  0.73394100  0.36575100  1
  C  C25  1  0.75000000  0.69060700  0.74397300  1
  C  C26  1  0.25000000  0.74299400  0.50487900  1
  C  C27  1  0.75000000  0.75700600  0.00487900  1
  C  C28  1  0.25000000  0.80939300  0.24397300  1
  C  C29  1  0.25000000  0.76605900  0.86575100  1
  C  C30  1  0.75000000  0.93726200  0.81653600  1
  C  C31  1  0.75000000  0.99900400  0.39864600  1
