# generated using pymatgen
data_Cu3Ni5C4
_symmetry_space_group_name_H-M   'P 1'
_cell_length_a   4.76638530
_cell_length_b   4.76638530
_cell_length_c   12.09777200
_cell_angle_alpha   90.00000000
_cell_angle_beta   90.00000000
_cell_angle_gamma   95.43838081
_symmetry_Int_Tables_number   1
_chemical_formula_structural   Cu3Ni5C4
_chemical_formula_sum   'Cu6 Ni10 C8'
_cell_volume   273.60522441
_cell_formula_units_Z   2
loop_
 _symmetry_equiv_pos_site_id
 _symmetry_equiv_pos_as_xyz
  1  'x, y, z'
loop_
 _atom_site_type_symbol
 _atom_site_label
 _atom_site_symmetry_multiplicity
 _atom_site_fract_x
 _atom_site_fract_y
 _atom_site_fract_z
 _atom_site_occupancy
  C  C0  1  0.99130000  0.00870000  0.12836900  1
  C  C1  1  0.99130000  0.00870000  0.37163100  1
  C  C2  1  0.00870000  0.99130000  0.62836900  1
  C  C3  1  0.00870000  0.99130000  0.87163100  1
  C  C4  1  0.53197700  0.46802300  0.25000000  1
  C  C5  1  0.46802300  0.53197700  0.75000000  1
  C  C6  1  0.50000000  0.50000000  0.00000000  1
  C  C7  1  0.50000000  0.50000000  0.50000000  1
  Ni  Ni8  1  0.18570600  0.81429400  0.75000000  1
  Ni  Ni9  1  0.31003900  0.30140000  0.11890100  1
  Ni  Ni10  1  0.31003900  0.30140000  0.38109900  1
  Ni  Ni11  1  0.30140000  0.31003900  0.61890100  1
  Ni  Ni12  1  0.30140000  0.31003900  0.88109900  1
  Ni  Ni13  1  0.69860000  0.68996100  0.11890100  1
  Ni  Ni14  1  0.69860000  0.68996100  0.38109900  1
  Ni  Ni15  1  0.68996100  0.69860000  0.61890100  1
  Ni  Ni16  1  0.68996100  0.69860000  0.88109900  1
  Ni  Ni17  1  0.81429400  0.18570600  0.25000000  1
  Cu  Cu18  1  0.19578900  0.80421100  0.25000000  1
  Cu  Cu19  1  0.19051500  0.80948500  0.49840300  1
  Cu  Cu20  1  0.19051500  0.80948500  0.00159700  1
  Cu  Cu21  1  0.80948500  0.19051500  0.50159700  1
  Cu  Cu22  1  0.80421100  0.19578900  0.75000000  1
  Cu  Cu23  1  0.80948500  0.19051500  0.99840300  1
