# generated using pymatgen
data_Cu11Ni9C10
_symmetry_space_group_name_H-M   'P 1'
_cell_length_a   4.76415500
_cell_length_b   4.76554694
_cell_length_c   15.48688538
_cell_angle_alpha   90.15143814
_cell_angle_beta   90.26892725
_cell_angle_gamma   93.26002959
_symmetry_Int_Tables_number   1
_chemical_formula_structural   Cu11Ni9C10
_chemical_formula_sum   'Cu11 Ni9 C10'
_cell_volume   351.03685481
_cell_formula_units_Z   1
loop_
 _symmetry_equiv_pos_site_id
 _symmetry_equiv_pos_as_xyz
  1  'x, y, z'
loop_
 _atom_site_type_symbol
 _atom_site_label
 _atom_site_symmetry_multiplicity
 _atom_site_fract_x
 _atom_site_fract_y
 _atom_site_fract_z
 _atom_site_occupancy
  C  C0  1  0.01122200  0.98625200  0.99858700  1
  C  C1  1  0.97972200  0.96476700  0.20356200  1
  C  C2  1  0.03822700  0.01629700  0.38959500  1
  C  C3  1  0.99076300  0.99023500  0.59933800  1
  C  C4  1  0.03887000  0.01713500  0.80785800  1
  C  C5  1  0.51873700  0.50083800  0.09394400  1
  C  C6  1  0.49032200  0.48315600  0.50446500  1
  C  C7  1  0.47434700  0.52385200  0.29784000  1
  C  C8  1  0.49474300  0.48669200  0.69682500  1
  C  C9  1  0.46105300  0.51648300  0.90718600  1
  Ni  Ni10  1  0.20120800  0.80272700  0.30539900  1
  Ni  Ni11  1  0.19212700  0.81537700  0.89823600  1
  Ni  Ni12  1  0.29757200  0.30003100  0.00208500  1
  Ni  Ni13  1  0.31770500  0.32077500  0.40338700  1
  Ni  Ni14  1  0.29545000  0.28964900  0.60106200  1
  Ni  Ni15  1  0.31748000  0.32302800  0.79738500  1
  Ni  Ni16  1  0.69819700  0.69925300  0.99738800  1
  Ni  Ni17  1  0.67201000  0.66992100  0.19895700  1
  Ni  Ni18  1  0.69764100  0.69155000  0.60048600  1
  Cu  Cu19  1  0.19715100  0.78876000  0.09676900  1
  Cu  Cu20  1  0.19535700  0.80842900  0.50070100  1
  Cu  Cu21  1  0.19432600  0.80841900  0.70047600  1
  Cu  Cu22  1  0.28705600  0.28895800  0.19864500  1
  Cu  Cu23  1  0.70870300  0.71253300  0.40528200  1
  Cu  Cu24  1  0.70821800  0.71442200  0.79434900  1
  Cu  Cu25  1  0.80210100  0.18766300  0.09645500  1
  Cu  Cu26  1  0.81089900  0.19001600  0.49991500  1
  Cu  Cu27  1  0.79095500  0.21169700  0.30617500  1
  Cu  Cu28  1  0.80652400  0.20139400  0.89647200  1
  Cu  Cu29  1  0.81131400  0.18969100  0.70117400  1
