# generated using pymatgen
data_Cu18Ni6C5
_symmetry_space_group_name_H-M   'P 1'
_cell_length_a   4.80714000
_cell_length_b   6.08332471
_cell_length_c   12.18673051
_cell_angle_alpha   100.89506297
_cell_angle_beta   90.02526580
_cell_angle_gamma   113.24108138
_symmetry_Int_Tables_number   1
_chemical_formula_structural   Cu18Ni6C5
_chemical_formula_sum   'Cu18 Ni6 C5'
_cell_volume   320.44592349
_cell_formula_units_Z   1
loop_
 _symmetry_equiv_pos_site_id
 _symmetry_equiv_pos_as_xyz
  1  'x, y, z'
loop_
 _atom_site_type_symbol
 _atom_site_label
 _atom_site_symmetry_multiplicity
 _atom_site_fract_x
 _atom_site_fract_y
 _atom_site_fract_z
 _atom_site_occupancy
  C  C0  1  0.92838200  0.35358700  0.77153100  1
  C  C1  1  0.07161800  0.64641300  0.22846900  1
  C  C2  1  0.33839500  0.16846400  0.16232000  1
  C  C3  1  0.00000000  0.50000000  0.50000000  1
  C  C4  1  0.66160500  0.83153600  0.83768000  1
  Ni  Ni5  1  0.53539400  0.57800800  0.36616600  1
  Ni  Ni6  1  0.20840100  0.91483800  0.69863300  1
  Ni  Ni7  1  0.46460600  0.42199200  0.63383400  1
  Ni  Ni8  1  0.87833100  0.24935900  0.03270200  1
  Ni  Ni9  1  0.12166900  0.75064100  0.96729800  1
  Ni  Ni10  1  0.79159900  0.08516200  0.30136700  1
  Cu  Cu11  1  0.48519400  0.94227200  0.71616900  1
  Cu  Cu12  1  0.51480600  0.05772800  0.28383100  1
  Cu  Cu13  1  0.57709200  0.34422800  0.54765800  1
  Cu  Cu14  1  0.61650600  0.50454400  0.73126300  1
  Cu  Cu15  1  0.38349400  0.49545600  0.26873700  1
  Cu  Cu16  1  0.06642100  0.79758400  0.59864400  1
  Cu  Cu17  1  0.42290800  0.65577200  0.45234200  1
  Cu  Cu18  1  0.07135900  0.00353600  0.77208400  1
  Cu  Cu19  1  0.14901200  0.25936500  0.04579200  1
  Cu  Cu20  1  0.18602100  0.41078300  0.62552100  1
  Cu  Cu21  1  0.23196000  0.65656000  0.88232700  1
  Cu  Cu22  1  0.92864100  0.99646400  0.22791600  1
  Cu  Cu23  1  0.27714600  0.84145600  0.06338100  1
  Cu  Cu24  1  0.93357900  0.20241600  0.40135600  1
  Cu  Cu25  1  0.72285400  0.15854400  0.93661900  1
  Cu  Cu26  1  0.76804000  0.34344000  0.11767300  1
  Cu  Cu27  1  0.81397900  0.58921700  0.37447900  1
  Cu  Cu28  1  0.85098800  0.74063500  0.95420800  1
