# generated using pymatgen
data_Cu9Ni18C25
_symmetry_space_group_name_H-M   'P 1'
_cell_length_a   13.89352337
_cell_length_b   13.89352337
_cell_length_c   7.53934200
_cell_angle_alpha   90.00000000
_cell_angle_beta   90.00000000
_cell_angle_gamma   119.99999698
_symmetry_Int_Tables_number   1
_chemical_formula_structural   Cu9Ni18C25
_chemical_formula_sum   'Cu18 Ni36 C50'
_cell_volume   1260.34336890
_cell_formula_units_Z   2
loop_
 _symmetry_equiv_pos_site_id
 _symmetry_equiv_pos_as_xyz
  1  'x, y, z'
loop_
 _atom_site_type_symbol
 _atom_site_label
 _atom_site_symmetry_multiplicity
 _atom_site_fract_x
 _atom_site_fract_y
 _atom_site_fract_z
 _atom_site_occupancy
  C  C0  1  0.33333300  0.66666700  0.25000000  1
  C  C1  1  0.66666700  0.33333300  0.75000000  1
  C  C2  1  0.09982300  0.64774800  0.35520900  1
  C  C3  1  0.54792500  0.90017700  0.35520900  1
  C  C4  1  0.35225200  0.45207500  0.35520900  1
  C  C5  1  0.90017700  0.35225200  0.85520900  1
  C  C6  1  0.45207500  0.09982300  0.85520900  1
  C  C7  1  0.64774800  0.54792500  0.85520900  1
  C  C8  1  0.90017700  0.35225200  0.64479100  1
  C  C9  1  0.45207500  0.09982300  0.64479100  1
  C  C10  1  0.64774800  0.54792500  0.64479100  1
  C  C11  1  0.09982300  0.64774800  0.14479100  1
  C  C12  1  0.54792500  0.90017700  0.14479100  1
  C  C13  1  0.35225200  0.45207500  0.14479100  1
  C  C14  1  0.36733500  0.87130600  0.04078700  1
  C  C15  1  0.50397100  0.63266500  0.04078700  1
  C  C16  1  0.12869400  0.49602900  0.04078700  1
  C  C17  1  0.63266500  0.12869400  0.54078700  1
  C  C18  1  0.49602900  0.36733500  0.54078700  1
  C  C19  1  0.87130600  0.50397100  0.54078700  1
  C  C20  1  0.63266500  0.12869400  0.95921300  1
  C  C21  1  0.49602900  0.36733500  0.95921300  1
  C  C22  1  0.87130600  0.50397100  0.95921300  1
  C  C23  1  0.36733500  0.87130600  0.45921300  1
  C  C24  1  0.50397100  0.63266500  0.45921300  1
  C  C25  1  0.12869400  0.49602900  0.45921300  1
  C  C26  1  0.28028500  0.76763200  0.93050000  1
  C  C27  1  0.48734700  0.71971500  0.93050000  1
  C  C28  1  0.23236800  0.51265300  0.93050000  1
  C  C29  1  0.71971500  0.23236800  0.43050000  1
  C  C30  1  0.51265300  0.28028500  0.43050000  1
  C  C31  1  0.76763200  0.48734700  0.43050000  1
  C  C32  1  0.71971500  0.23236800  0.06950000  1
  C  C33  1  0.51265300  0.28028500  0.06950000  1
  C  C34  1  0.76763200  0.48734700  0.06950000  1
  C  C35  1  0.28028500  0.76763200  0.56950000  1
  C  C36  1  0.48734700  0.71971500  0.56950000  1
  C  C37  1  0.23236800  0.51265300  0.56950000  1
  C  C38  1  0.01906600  0.78673100  0.75000000  1
  C  C39  1  0.76766400  0.98093400  0.75000000  1
  C  C40  1  0.21326900  0.23233600  0.75000000  1
  C  C41  1  0.98093400  0.21326900  0.25000000  1
  C  C42  1  0.23233600  0.01906600  0.25000000  1
  C  C43  1  0.78673100  0.76766400  0.25000000  1
  C  C44  1  0.06504800  0.68051200  0.75000000  1
  C  C45  1  0.61546400  0.93495200  0.75000000  1
  C  C46  1  0.31948800  0.38453600  0.75000000  1
  C  C47  1  0.93495200  0.31948800  0.25000000  1
  C  C48  1  0.38453600  0.06504800  0.25000000  1
  C  C49  1  0.68051200  0.61546400  0.25000000  1
  Ni  Ni50  1  0.14518500  0.65662900  0.25000000  1
  Ni  Ni51  1  0.51144400  0.85481500  0.25000000  1
  Ni  Ni52  1  0.34337100  0.48855600  0.25000000  1
  Ni  Ni53  1  0.85481500  0.34337100  0.75000000  1
  Ni  Ni54  1  0.48855600  0.14518500  0.75000000  1
  Ni  Ni55  1  0.65662900  0.51144400  0.75000000  1
  Ni  Ni56  1  0.34159800  0.79250100  0.01653800  1
  Ni  Ni57  1  0.45090300  0.65840200  0.01653800  1
  Ni  Ni58  1  0.20749900  0.54909700  0.01653800  1
  Ni  Ni59  1  0.65840200  0.20749900  0.51653800  1
  Ni  Ni60  1  0.54909700  0.34159800  0.51653800  1
  Ni  Ni61  1  0.79250100  0.45090300  0.51653800  1
  Ni  Ni62  1  0.65840200  0.20749900  0.98346200  1
  Ni  Ni63  1  0.54909700  0.34159800  0.98346200  1
  Ni  Ni64  1  0.79250100  0.45090300  0.98346200  1
  Ni  Ni65  1  0.34159800  0.79250100  0.48346200  1
  Ni  Ni66  1  0.45090300  0.65840200  0.48346200  1
  Ni  Ni67  1  0.20749900  0.54909700  0.48346200  1
  Ni  Ni68  1  0.18673200  0.74655300  0.75000000  1
  Ni  Ni69  1  0.55982000  0.81326800  0.75000000  1
  Ni  Ni70  1  0.25344700  0.44018000  0.75000000  1
  Ni  Ni71  1  0.81326800  0.25344700  0.25000000  1
  Ni  Ni72  1  0.44018000  0.18673200  0.25000000  1
  Ni  Ni73  1  0.74655300  0.55982000  0.25000000  1
  Ni  Ni74  1  0.01822300  0.61760100  0.91412700  1
  Ni  Ni75  1  0.59937800  0.98177700  0.91412700  1
  Ni  Ni76  1  0.38239900  0.40062200  0.91412700  1
  Ni  Ni77  1  0.98177700  0.38239900  0.41412700  1
  Ni  Ni78  1  0.40062200  0.01822300  0.41412700  1
  Ni  Ni79  1  0.61760100  0.59937800  0.41412700  1
  Ni  Ni80  1  0.98177700  0.38239900  0.08587300  1
  Ni  Ni81  1  0.40062200  0.01822300  0.08587300  1
  Ni  Ni82  1  0.61760100  0.59937800  0.08587300  1
  Ni  Ni83  1  0.01822300  0.61760100  0.58587300  1
  Ni  Ni84  1  0.59937800  0.98177700  0.58587300  1
  Ni  Ni85  1  0.38239900  0.40062200  0.58587300  1
  Cu  Cu86  1  0.90672800  0.73459100  0.75000000  1
  Cu  Cu87  1  0.82786200  0.09327200  0.75000000  1
  Cu  Cu88  1  0.26540900  0.17213800  0.75000000  1
  Cu  Cu89  1  0.09327200  0.26540900  0.25000000  1
  Cu  Cu90  1  0.17213800  0.90672800  0.25000000  1
  Cu  Cu91  1  0.73459100  0.82786200  0.25000000  1
  Cu  Cu92  1  0.05748200  0.85159700  0.89570700  1
  Cu  Cu93  1  0.79411500  0.94251800  0.89570700  1
  Cu  Cu94  1  0.14840300  0.20588500  0.89570700  1
  Cu  Cu95  1  0.94251800  0.14840300  0.39570700  1
  Cu  Cu96  1  0.20588500  0.05748200  0.39570700  1
  Cu  Cu97  1  0.85159700  0.79411500  0.39570700  1
  Cu  Cu98  1  0.94251800  0.14840300  0.10429300  1
  Cu  Cu99  1  0.20588500  0.05748200  0.10429300  1
  Cu  Cu100  1  0.85159700  0.79411500  0.10429300  1
  Cu  Cu101  1  0.05748200  0.85159700  0.60429300  1
  Cu  Cu102  1  0.79411500  0.94251800  0.60429300  1
  Cu  Cu103  1  0.14840300  0.20588500  0.60429300  1
