# generated using pymatgen
data_Cu7Ni2C31
_symmetry_space_group_name_H-M   'P 1'
_cell_length_a   5.24686100
_cell_length_b   12.18278600
_cell_length_c   16.15529726
_cell_angle_alpha   84.51621349
_cell_angle_beta   90.00000000
_cell_angle_gamma   90.00000000
_symmetry_Int_Tables_number   1
_chemical_formula_structural   Cu7Ni2C31
_chemical_formula_sum   'Cu14 Ni4 C62'
_cell_volume   1027.94273570
_cell_formula_units_Z   2
loop_
 _symmetry_equiv_pos_site_id
 _symmetry_equiv_pos_as_xyz
  1  'x, y, z'
loop_
 _atom_site_type_symbol
 _atom_site_label
 _atom_site_symmetry_multiplicity
 _atom_site_fract_x
 _atom_site_fract_y
 _atom_site_fract_z
 _atom_site_occupancy
  C  C0  1  0.23219100  0.47671400  0.03283500  1
  C  C1  1  0.22033000  0.11533700  0.13187400  1
  C  C2  1  0.76780900  0.97671400  0.03283500  1
  C  C3  1  0.77967000  0.61533700  0.13187400  1
  C  C4  1  0.83344500  0.44097200  0.42354500  1
  C  C5  1  0.16655500  0.94097200  0.42354500  1
  C  C6  1  0.28805700  0.25000000  0.50000000  1
  C  C7  1  0.71194300  0.75000000  0.50000000  1
  C  C8  1  0.83344500  0.05902800  0.57645500  1
  C  C9  1  0.16655500  0.55902800  0.57645500  1
  C  C10  1  0.22033000  0.38466300  0.86812600  1
  C  C11  1  0.23219100  0.02328600  0.96716500  1
  C  C12  1  0.77967000  0.88466300  0.86812600  1
  C  C13  1  0.76780900  0.52328600  0.96716500  1
  Ni  Ni14  1  0.33157000  0.30846400  0.27671100  1
  Ni  Ni15  1  0.66843000  0.80846400  0.27671100  1
  Ni  Ni16  1  0.33157000  0.19153600  0.72328900  1
  Ni  Ni17  1  0.66843000  0.69153600  0.72328900  1
  Cu  Cu18  1  0.53400900  0.25000000  0.00000000  1
  Cu  Cu19  1  0.46599100  0.75000000  0.00000000  1
  Cu  Cu20  1  0.86471300  0.34176300  0.12995700  1
  Cu  Cu21  1  0.13528700  0.84176300  0.12995700  1
  Cu  Cu22  1  0.60849500  0.05224800  0.27746800  1
  Cu  Cu23  1  0.39150500  0.55224800  0.27746800  1
  Cu  Cu24  1  0.81911100  0.19138600  0.39843400  1
  Cu  Cu25  1  0.18088900  0.69138600  0.39843400  1
  Cu  Cu26  1  0.81911100  0.30861400  0.60156600  1
  Cu  Cu27  1  0.18088900  0.80861400  0.60156600  1
  Cu  Cu28  1  0.60849500  0.44775200  0.72253200  1
  Cu  Cu29  1  0.39150500  0.94775200  0.72253200  1
  Cu  Cu30  1  0.86471300  0.15823700  0.87004300  1
  Cu  Cu31  1  0.13528700  0.65823700  0.87004300  1
  C  C32  1  0.39309900  0.14187900  0.01703600  1
  C  C33  1  0.60690100  0.64187900  0.01703600  1
  C  C34  1  0.72019500  0.25103000  0.07785500  1
  C  C35  1  0.88649900  0.45006500  0.07352700  1
  C  C36  1  0.27980500  0.75103000  0.07785500  1
  C  C37  1  0.11350100  0.95006500  0.07352700  1
  C  C38  1  0.12084000  0.28293100  0.14811500  1
  C  C39  1  0.75531800  0.98886700  0.21468600  1
  C  C40  1  0.70965900  0.35442900  0.20768400  1
  C  C41  1  0.87916000  0.78293100  0.14811500  1
  C  C42  1  0.24468200  0.48886700  0.21468600  1
  C  C43  1  0.40339300  0.12774300  0.23468600  1
  C  C44  1  0.29034100  0.85442900  0.20768400  1
  C  C45  1  0.59660700  0.62774300  0.23468600  1
  C  C46  1  0.82540600  0.13252700  0.31125600  1
  C  C47  1  0.17459400  0.63252700  0.31125600  1
  C  C48  1  0.98546200  0.29627200  0.37987400  1
  C  C49  1  0.49519900  0.47276200  0.34945100  1
  C  C50  1  0.53712200  0.22216500  0.41058000  1
  C  C51  1  0.01453800  0.79627200  0.37987400  1
  C  C52  1  0.50480100  0.97276200  0.34945100  1
  C  C53  1  0.46287800  0.72216500  0.41058000  1
  C  C54  1  0.93687900  0.10995800  0.46407800  1
  C  C55  1  0.06312100  0.60995800  0.46407800  1
  C  C56  1  0.93687900  0.39004200  0.53592200  1
  C  C57  1  0.06312100  0.89004200  0.53592200  1
  C  C58  1  0.53712200  0.27783500  0.58942000  1
  C  C59  1  0.49519900  0.02723800  0.65054800  1
  C  C60  1  0.98546200  0.20372800  0.62012600  1
  C  C61  1  0.46287800  0.77783500  0.58942000  1
  C  C62  1  0.50480100  0.52723800  0.65054800  1
  C  C63  1  0.01453800  0.70372800  0.62012600  1
  C  C64  1  0.82540600  0.36747300  0.68874400  1
  C  C65  1  0.17459400  0.86747300  0.68874400  1
  C  C66  1  0.40339300  0.37225700  0.76531400  1
  C  C67  1  0.70965900  0.14557100  0.79231600  1
  C  C68  1  0.59660700  0.87225700  0.76531400  1
  C  C69  1  0.75531800  0.51113300  0.78531400  1
  C  C70  1  0.12084000  0.21706900  0.85188500  1
  C  C71  1  0.29034100  0.64557100  0.79231600  1
  C  C72  1  0.24468200  0.01113300  0.78531400  1
  C  C73  1  0.87916000  0.71706900  0.85188500  1
  C  C74  1  0.88649900  0.04993500  0.92647300  1
  C  C75  1  0.72019500  0.24897000  0.92214500  1
  C  C76  1  0.11350100  0.54993500  0.92647300  1
  C  C77  1  0.27980500  0.74897000  0.92214500  1
  C  C78  1  0.39309900  0.35812100  0.98296400  1
  C  C79  1  0.60690100  0.85812100  0.98296400  1
