# generated using pymatgen
data_CuNi3C10
_symmetry_space_group_name_H-M   'P 1'
_cell_length_a   5.79735414
_cell_length_b   5.79735414
_cell_length_c   9.58291200
_cell_angle_alpha   90.00000000
_cell_angle_beta   90.00000000
_cell_angle_gamma   120.00000159
_symmetry_Int_Tables_number   1
_chemical_formula_structural   CuNi3C10
_chemical_formula_sum   'Cu2 Ni6 C20'
_cell_volume   278.92522117
_cell_formula_units_Z   2
loop_
 _symmetry_equiv_pos_site_id
 _symmetry_equiv_pos_as_xyz
  1  'x, y, z'
loop_
 _atom_site_type_symbol
 _atom_site_label
 _atom_site_symmetry_multiplicity
 _atom_site_fract_x
 _atom_site_fract_y
 _atom_site_fract_z
 _atom_site_occupancy
  C  C0  1  0.33333300  0.66666700  0.88585200  1
  C  C1  1  0.00000000  0.00000000  0.99888400  1
  C  C2  1  0.00000000  0.00000000  0.49888400  1
  C  C3  1  0.66666700  0.33333300  0.38585200  1
  Ni  Ni4  1  0.16868500  0.83131500  0.21520800  1
  Ni  Ni5  1  0.16868500  0.33736900  0.21520800  1
  Ni  Ni6  1  0.66263100  0.83131500  0.21520800  1
  Ni  Ni7  1  0.33736900  0.16868500  0.71520800  1
  Ni  Ni8  1  0.83131500  0.66263100  0.71520800  1
  Ni  Ni9  1  0.83131500  0.16868500  0.71520800  1
  Cu  Cu10  1  0.33333300  0.66666700  0.48925400  1
  Cu  Cu11  1  0.66666700  0.33333300  0.98925400  1
  C  C12  1  0.15848900  0.84151100  0.60706400  1
  C  C13  1  0.03509800  0.51754900  0.33072800  1
  C  C14  1  0.33333300  0.66666700  0.10884800  1
  C  C15  1  0.00000000  0.00000000  0.31209100  1
  C  C16  1  0.00000000  0.00000000  0.81209100  1
  C  C17  1  0.15848900  0.31697800  0.60706400  1
  C  C18  1  0.48245100  0.96490200  0.33072800  1
  C  C19  1  0.48245100  0.51754900  0.33072800  1
  C  C20  1  0.31697800  0.15848900  0.10706400  1
  C  C21  1  0.68302200  0.84151100  0.60706400  1
  C  C22  1  0.51754900  0.48245100  0.83072800  1
  C  C23  1  0.51754900  0.03509800  0.83072800  1
  C  C24  1  0.66666700  0.33333300  0.60884800  1
  C  C25  1  0.84151100  0.68302200  0.10706400  1
  C  C26  1  0.96490200  0.48245100  0.83072800  1
  C  C27  1  0.84151100  0.15848900  0.10706400  1
