# generated using pymatgen
data_Cu(Ni2C11)2
_symmetry_space_group_name_H-M   'P 1'
_cell_length_a   10.19855800
_cell_length_b   10.21310037
_cell_length_c   17.68745463
_cell_angle_alpha   74.07741238
_cell_angle_beta   73.52811537
_cell_angle_gamma   60.82846427
_symmetry_Int_Tables_number   1
_chemical_formula_structural   Cu(Ni2C11)2
_chemical_formula_sum   'Cu4 Ni16 C88'
_cell_volume   1522.09221221
_cell_formula_units_Z   4
loop_
 _symmetry_equiv_pos_site_id
 _symmetry_equiv_pos_as_xyz
  1  'x, y, z'
loop_
 _atom_site_type_symbol
 _atom_site_label
 _atom_site_symmetry_multiplicity
 _atom_site_fract_x
 _atom_site_fract_y
 _atom_site_fract_z
 _atom_site_occupancy
  C  C0  1  0.41456400  0.91384100  0.16415700  1
  C  C1  1  0.78427600  0.28483200  0.03483500  1
  C  C2  1  0.11856000  0.20083800  0.45953300  1
  C  C3  1  0.68948700  0.62225000  0.45997700  1
  C  C4  1  0.00284300  0.91548400  0.16564600  1
  C  C5  1  0.41574700  0.50331600  0.16527700  1
  C  C6  1  0.49882400  0.42242600  0.66071800  1
  C  C7  1  0.20988400  0.12131800  0.95984600  1
  C  C8  1  0.08831900  0.58691500  0.33950700  1
  C  C9  1  0.91313200  0.40788300  0.66855000  1
  C  C10  1  0.89323000  0.78473700  0.53505300  1
  C  C11  1  0.70107500  0.21821800  0.46024000  1
  C  C12  1  0.21204300  0.71229200  0.95804300  1
  C  C13  1  0.62132500  0.70955200  0.96159600  1
  C  C14  1  0.92015700  0.00416200  0.66601800  1
  C  C15  1  0.59018100  0.09207000  0.84006200  1
  C  C16  1  0.00566900  0.50666200  0.00005800  1
  C  C17  1  0.25205000  0.24131800  0.24662200  1
  C  C18  1  0.49144100  0.00759400  0.49986100  1
  C  C19  1  0.25124000  0.74901200  0.75021300  1
  C  C20  1  0.74999300  0.24959500  0.25568600  1
  C  C21  1  0.74024300  0.75303500  0.24761700  1
  C  C22  1  0.74956000  0.74086600  0.75239400  1
  C  C23  1  0.24401400  0.25216100  0.74796700  1
  Ni  Ni24  1  0.08255100  0.19352900  0.13509000  1
  Ni  Ni25  1  0.08821600  0.58288800  0.14114900  1
  Ni  Ni26  1  0.42243700  0.92350700  0.35744300  1
  Ni  Ni27  1  0.60890300  0.10894600  0.17111100  1
  Ni  Ni28  1  0.10635200  0.60945000  0.67155700  1
  Ni  Ni29  1  0.42056900  0.29708100  0.36033500  1
  Ni  Ni30  1  0.80021200  0.91948000  0.36108700  1
  Ni  Ni31  1  0.29781300  0.42250600  0.85945900  1
  Ni  Ni32  1  0.69042000  0.58002200  0.13795800  1
  Ni  Ni33  1  0.19081200  0.08476100  0.63799500  1
  Ni  Ni34  1  0.58990700  0.69230000  0.63682800  1
  Ni  Ni35  1  0.88878500  0.39387200  0.33560600  1
  Ni  Ni36  1  0.39050600  0.89263600  0.83535400  1
  Ni  Ni37  1  0.59079000  0.08030100  0.63967700  1
  Ni  Ni38  1  0.92087900  0.42060400  0.85948100  1
  Ni  Ni39  1  0.92232200  0.79783800  0.85997700  1
  Cu  Cu40  1  0.18345500  0.68851000  0.43746600  1
  Cu  Cu41  1  0.31235600  0.81225200  0.06247800  1
  Cu  Cu42  1  0.68784000  0.18769800  0.93745200  1
  Cu  Cu43  1  0.81198100  0.31226800  0.56258600  1
  C  C44  1  0.13243400  0.26011500  0.06856500  1
  C  C45  1  0.20768000  0.71767700  0.34761000  1
  C  C46  1  0.08555900  0.60118300  0.46589000  1
  C  C47  1  0.15956700  0.13374200  0.19397900  1
  C  C48  1  0.03976400  0.63301700  0.07284700  1
  C  C49  1  0.08968200  0.83663100  0.46895500  1
  C  C50  1  0.32832300  0.59854700  0.46734400  1
  C  C51  1  0.49010200  0.85580600  0.29470800  1
  C  C52  1  0.99287400  0.36111700  0.79442600  1
  C  C53  1  0.47734500  0.11236300  0.17528500  1
  C  C54  1  0.21218900  0.45820400  0.14984000  1
  C  C55  1  0.22629700  0.47965000  0.67590400  1
  C  C56  1  0.29787100  0.04979100  0.35403300  1
  C  C57  1  0.72978500  0.97898200  0.17374700  1
  C  C58  1  0.02375700  0.37525900  0.33694700  1
  C  C59  1  0.40108100  0.66359700  0.03229900  1
  C  C60  1  0.16391800  0.90046600  0.03296600  1
  C  C61  1  0.61935500  0.23277600  0.16616800  1
  C  C62  1  0.11171300  0.73215600  0.67525900  1
  C  C63  1  0.48233700  0.86721800  0.42145300  1
  C  C64  1  0.34847200  0.36702800  0.30074400  1
  C  C65  1  0.81279700  0.78886100  0.35627000  1
  C  C66  1  0.30970600  0.29074100  0.85784600  1
  C  C67  1  0.28228500  0.78301300  0.15197800  1
  C  C68  1  0.40256100  0.90174500  0.03291100  1
  C  C69  1  0.46514000  0.68199200  0.64614200  1
  C  C70  1  0.95758100  0.18114200  0.14416300  1
  C  C71  1  0.75550600  0.53227100  0.06950500  1
  C  C72  1  0.25680200  0.04014100  0.56875000  1
  C  C73  1  0.36207700  0.22911600  0.42395400  1
  C  C74  1  0.84910800  0.99644000  0.29788300  1
  C  C75  1  0.35438100  0.49276100  0.79657800  1
  C  C76  1  0.64114500  0.75876000  0.56982200  1
  C  C77  1  0.13455000  0.00616900  0.69496100  1
  C  C78  1  0.63229300  0.50431200  0.19612600  1
  C  C79  1  0.05429200  0.79368700  0.85377400  1
  C  C80  1  0.73792200  0.97352300  0.42788100  1
  C  C81  1  0.55318800  0.29007400  0.35731900  1
  C  C82  1  0.22682000  0.48663700  0.92324700  1
  C  C83  1  0.59736000  0.09775500  0.96565900  1
  C  C84  1  0.71713100  0.21614500  0.84763800  1
  C  C85  1  0.68098900  0.70771700  0.14661900  1
  C  C86  1  0.17797200  0.21262600  0.64835700  1
  C  C87  1  0.66919100  0.63115000  0.69505000  1
  C  C88  1  0.53964900  0.13244100  0.57283800  1
  C  C89  1  0.87011000  0.27534700  0.33639500  1
  C  C90  1  0.37256700  0.77563100  0.83562800  1
  C  C91  1  0.83614300  0.10080700  0.96797200  1
  C  C92  1  0.60076900  0.33632600  0.96844700  1
  C  C93  1  0.97730100  0.61866600  0.66524200  1
  C  C94  1  0.77318800  0.52681400  0.33556700  1
  C  C95  1  0.71740500  0.95489800  0.64624200  1
  C  C96  1  0.27656600  0.02632000  0.83636700  1
  C  C97  1  0.79597200  0.54815500  0.85660600  1
  C  C98  1  0.52746000  0.87447900  0.83611600  1
  C  C99  1  0.51788300  0.15424600  0.69962000  1
  C  C100  1  0.01274800  0.66160000  0.19904100  1
  C  C101  1  0.89973400  0.16347800  0.53228700  1
  C  C102  1  0.66360600  0.40024500  0.53308600  1
  C  C103  1  0.97278700  0.35812500  0.92569700  1
  C  C104  1  0.84434300  0.86842800  0.80240300  1
  C  C105  1  0.90219900  0.40159400  0.53315400  1
  C  C106  1  0.78161900  0.28264400  0.65205000  1
  C  C107  1  0.86854100  0.72682800  0.92427300  1
