# generated using pymatgen
data_Cu2Ni3C19
_symmetry_space_group_name_H-M   'P 1'
_cell_length_a   5.81591972
_cell_length_b   5.81591972
_cell_length_c   8.69840036
_cell_angle_alpha   89.42729556
_cell_angle_beta   89.42729556
_cell_angle_gamma   59.99725032
_symmetry_Int_Tables_number   1
_chemical_formula_structural   Cu2Ni3C19
_chemical_formula_sum   'Cu2 Ni3 C19'
_cell_volume   254.78031465
_cell_formula_units_Z   1
loop_
 _symmetry_equiv_pos_site_id
 _symmetry_equiv_pos_as_xyz
  1  'x, y, z'
loop_
 _atom_site_type_symbol
 _atom_site_label
 _atom_site_symmetry_multiplicity
 _atom_site_fract_x
 _atom_site_fract_y
 _atom_site_fract_z
 _atom_site_occupancy
  Ni  Ni0  1  0.82939400  0.82939400  0.78866600  1
  Ni  Ni1  1  0.16618600  0.66188500  0.28744200  1
  Ni  Ni2  1  0.66188500  0.16618600  0.28744200  1
  C  C3  1  0.32968800  0.83287000  0.79952100  1
  C  C4  1  0.83287000  0.32968800  0.79952100  1
  C  C5  1  0.16212300  0.16212300  0.29888600  1
  Cu  Cu6  1  0.66904700  0.66904700  0.51689100  1
  Cu  Cu7  1  0.33379400  0.33379400  0.01753200  1
  C  C8  1  0.34075000  0.83225800  0.39384800  1
  C  C9  1  0.52980900  0.52980900  0.66020600  1
  C  C10  1  0.66994400  0.66994400  0.90710800  1
  C  C11  1  0.99738100  0.99738100  0.68593500  1
  C  C12  1  0.99604900  0.99604900  0.18129400  1
  C  C13  1  0.83225800  0.34075000  0.39384800  1
  C  C14  1  0.52373600  0.95252700  0.65769600  1
  C  C15  1  0.95252700  0.52373600  0.65769600  1
  C  C16  1  0.17421100  0.17421100  0.89348200  1
  C  C17  1  0.82978100  0.82978100  0.39782900  1
  C  C18  1  0.04932700  0.47383300  0.15591700  1
  C  C19  1  0.47383300  0.04932700  0.15591700  1
  C  C20  1  0.33589000  0.33589000  0.40027900  1
  C  C21  1  0.17529800  0.65673000  0.89653500  1
  C  C22  1  0.47736900  0.47736900  0.15421200  1
  C  C23  1  0.65673000  0.17529800  0.89653500  1
