# generated using pymatgen
data_Cu3Ni2C
_symmetry_space_group_name_H-M   'P 1'
_cell_length_a   7.73645600
_cell_length_b   7.99911600
_cell_length_c   14.85749600
_cell_angle_alpha   90.00000000
_cell_angle_beta   90.00000000
_cell_angle_gamma   90.00000000
_symmetry_Int_Tables_number   1
_chemical_formula_structural   Cu3Ni2C
_chemical_formula_sum   'Cu24 Ni16 C8'
_cell_volume   919.45330178
_cell_formula_units_Z   8
loop_
 _symmetry_equiv_pos_site_id
 _symmetry_equiv_pos_as_xyz
  1  'x, y, z'
loop_
 _atom_site_type_symbol
 _atom_site_label
 _atom_site_symmetry_multiplicity
 _atom_site_fract_x
 _atom_site_fract_y
 _atom_site_fract_z
 _atom_site_occupancy
  C  C0  1  0.61947100  0.15057700  0.14015800  1
  C  C1  1  0.11947100  0.34942300  0.85984200  1
  C  C2  1  0.38052900  0.65057700  0.35984200  1
  C  C3  1  0.88052900  0.84942300  0.64015800  1
  C  C4  1  0.38052900  0.84942300  0.85984200  1
  C  C5  1  0.88052900  0.65057700  0.14015800  1
  C  C6  1  0.61947100  0.34942300  0.64015800  1
  C  C7  1  0.11947100  0.15057700  0.35984200  1
  Ni  Ni8  1  0.13457500  0.13762500  0.08112500  1
  Ni  Ni9  1  0.63457500  0.36237500  0.91887500  1
  Ni  Ni10  1  0.86542500  0.63762500  0.41887500  1
  Ni  Ni11  1  0.36542500  0.86237500  0.58112500  1
  Ni  Ni12  1  0.86542500  0.86237500  0.91887500  1
  Ni  Ni13  1  0.36542500  0.63762500  0.08112500  1
  Ni  Ni14  1  0.13457500  0.36237500  0.58112500  1
  Ni  Ni15  1  0.63457500  0.13762500  0.41887500  1
  Ni  Ni16  1  0.50818800  0.98397300  0.17231800  1
  Ni  Ni17  1  0.00818800  0.51602700  0.82768200  1
  Ni  Ni18  1  0.49181200  0.48397300  0.32768200  1
  Ni  Ni19  1  0.99181200  0.01602700  0.67231800  1
  Ni  Ni20  1  0.49181200  0.01602700  0.82768200  1
  Ni  Ni21  1  0.99181200  0.48397300  0.17231800  1
  Ni  Ni22  1  0.50818800  0.51602700  0.67231800  1
  Ni  Ni23  1  0.00818800  0.98397300  0.32768200  1
  Cu  Cu24  1  0.72644400  0.20197500  0.21692500  1
  Cu  Cu25  1  0.22644400  0.29802500  0.78307500  1
  Cu  Cu26  1  0.27355600  0.70197500  0.28307500  1
  Cu  Cu27  1  0.77355600  0.79802500  0.71692500  1
  Cu  Cu28  1  0.27355600  0.79802500  0.78307500  1
  Cu  Cu29  1  0.77355600  0.70197500  0.21692500  1
  Cu  Cu30  1  0.72644400  0.29802500  0.71692500  1
  Cu  Cu31  1  0.22644400  0.20197500  0.28307500  1
  Cu  Cu32  1  0.48994100  0.27537300  0.11461900  1
  Cu  Cu33  1  0.98994100  0.22462700  0.88538100  1
  Cu  Cu34  1  0.51005900  0.77537300  0.38538100  1
  Cu  Cu35  1  0.01005900  0.72462700  0.61461900  1
  Cu  Cu36  1  0.51005900  0.72462700  0.88538100  1
  Cu  Cu37  1  0.01005900  0.77537300  0.11461900  1
  Cu  Cu38  1  0.48994100  0.22462700  0.61461900  1
  Cu  Cu39  1  0.98994100  0.27537300  0.38538100  1
  Cu  Cu40  1  0.72386200  0.09576800  0.06260000  1
  Cu  Cu41  1  0.22386200  0.40423200  0.93740000  1
  Cu  Cu42  1  0.27613800  0.59576800  0.43740000  1
  Cu  Cu43  1  0.77613800  0.90423200  0.56260000  1
  Cu  Cu44  1  0.27613800  0.90423200  0.93740000  1
  Cu  Cu45  1  0.77613800  0.59576800  0.06260000  1
  Cu  Cu46  1  0.72386200  0.40423200  0.56260000  1
  Cu  Cu47  1  0.22386200  0.09576800  0.43740000  1
