# generated using pymatgen
data_Cu8(NiC5)3
_symmetry_space_group_name_H-M   'P 1'
_cell_length_a   7.54350400
_cell_length_b   11.51040424
_cell_length_c   14.59979958
_cell_angle_alpha   97.79570105
_cell_angle_beta   89.50637613
_cell_angle_gamma   97.69703564
_symmetry_Int_Tables_number   1
_chemical_formula_structural   Cu8(NiC5)3
_chemical_formula_sum   'Cu32 Ni12 C60'
_cell_volume   1244.59189430
_cell_formula_units_Z   4
loop_
 _symmetry_equiv_pos_site_id
 _symmetry_equiv_pos_as_xyz
  1  'x, y, z'
loop_
 _atom_site_type_symbol
 _atom_site_label
 _atom_site_symmetry_multiplicity
 _atom_site_fract_x
 _atom_site_fract_y
 _atom_site_fract_z
 _atom_site_occupancy
  C  C0  1  0.97313600  0.31777500  0.69257100  1
  C  C1  1  0.02686400  0.68222500  0.30742900  1
  C  C2  1  0.49730700  0.33883000  0.05786900  1
  C  C3  1  0.50269300  0.66117000  0.94213100  1
  C  C4  1  0.74549200  0.75224800  0.73817600  1
  C  C5  1  0.25450800  0.24775200  0.26182400  1
  C  C6  1  0.37309700  0.14222700  0.73789800  1
  C  C7  1  0.62690300  0.85777300  0.26210200  1
  Ni  Ni8  1  0.99815400  0.87241500  0.10510500  1
  Ni  Ni9  1  0.00184600  0.12758500  0.89489500  1
  Ni  Ni10  1  0.01495700  0.71417200  0.92690200  1
  Ni  Ni11  1  0.98504300  0.28582800  0.07309800  1
  Ni  Ni12  1  0.14245400  0.91145900  0.82159300  1
  Ni  Ni13  1  0.85754600  0.08854100  0.17840700  1
  Ni  Ni14  1  0.50807100  0.62383200  0.38802100  1
  Ni  Ni15  1  0.49192900  0.37616800  0.61197900  1
  Ni  Ni16  1  0.46259200  0.78359100  0.56285200  1
  Ni  Ni17  1  0.53740800  0.21640900  0.43714800  1
  Ni  Ni18  1  0.66474200  0.40888500  0.32507500  1
  Ni  Ni19  1  0.33525800  0.59111500  0.67492500  1
  Cu  Cu20  1  0.81804900  0.50017400  0.85122600  1
  Cu  Cu21  1  0.18195100  0.49982600  0.14877400  1
  Cu  Cu22  1  0.84805200  0.40872800  0.91922000  1
  Cu  Cu23  1  0.15194800  0.59127200  0.08078000  1
  Cu  Cu24  1  0.64185500  0.18339400  0.87558400  1
  Cu  Cu25  1  0.35814500  0.81660600  0.12441600  1
  Cu  Cu26  1  0.38240900  0.69052300  0.14803700  1
  Cu  Cu27  1  0.61759100  0.30947700  0.85196300  1
  Cu  Cu28  1  0.49319500  0.09911500  0.16581000  1
  Cu  Cu29  1  0.50680500  0.90088500  0.83419000  1
  Cu  Cu30  1  0.69287500  0.95240500  0.87795500  1
  Cu  Cu31  1  0.30712500  0.04759500  0.12204500  1
  Cu  Cu32  1  0.84313700  0.89070500  0.44045600  1
  Cu  Cu33  1  0.15686300  0.10929500  0.55954400  1
  Cu  Cu34  1  0.73342400  0.00321700  0.43379200  1
  Cu  Cu35  1  0.26657600  0.99678300  0.56620800  1
  Cu  Cu36  1  0.79223000  0.54764600  0.61358000  1
  Cu  Cu37  1  0.20777000  0.45235400  0.38642000  1
  Cu  Cu38  1  0.98197200  0.60387800  0.65230000  1
  Cu  Cu39  1  0.01802800  0.39612200  0.34770000  1
  Cu  Cu40  1  0.91151000  0.18234400  0.49222800  1
  Cu  Cu41  1  0.08849000  0.81765600  0.50777200  1
  Cu  Cu42  1  0.91646500  0.73567500  0.53059400  1
  Cu  Cu43  1  0.08353500  0.26432500  0.46940600  1
  Cu  Cu44  1  0.36883300  0.99987100  0.34502000  1
  Cu  Cu45  1  0.63116700  0.00012900  0.65498000  1
  Cu  Cu46  1  0.63251400  0.10514000  0.59597600  1
  Cu  Cu47  1  0.36748600  0.89486000  0.40402400  1
  Cu  Cu48  1  0.79459200  0.52007100  0.08714300  1
  Cu  Cu49  1  0.20540800  0.47992900  0.91285700  1
  Cu  Cu50  1  0.74714600  0.64771400  0.11537200  1
  Cu  Cu51  1  0.25285400  0.35228600  0.88462800  1
  C  C52  1  0.80165800  0.10325700  0.89244000  1
  C  C53  1  0.19834200  0.89674300  0.10756000  1
  C  C54  1  0.10319500  0.18866400  0.82093400  1
  C  C55  1  0.89680500  0.81133600  0.17906600  1
  C  C56  1  0.07291800  0.19932200  0.99390900  1
  C  C57  1  0.92708200  0.80067800  0.00609100  1
  C  C58  1  0.87862300  0.36797200  0.03338300  1
  C  C59  1  0.12137700  0.63202800  0.96661700  1
  C  C60  1  0.86117200  0.66423700  0.86126500  1
  C  C61  1  0.13882800  0.33576300  0.13873500  1
  C  C62  1  0.16236500  0.80402000  0.87941700  1
  C  C63  1  0.83763500  0.19598000  0.12058300  1
  C  C64  1  0.67080600  0.04220000  0.20657700  1
  C  C65  1  0.32919400  0.95780000  0.79342300  1
  C  C66  1  0.00156300  0.87834300  0.74777400  1
  C  C67  1  0.99843700  0.12165700  0.25222600  1
  C  C68  1  0.07998200  0.00572100  0.90412500  1
  C  C69  1  0.92001800  0.99427900  0.09587500  1
  C  C70  1  0.30854400  0.59675300  0.37887900  1
  C  C71  1  0.69145600  0.40324700  0.62112100  1
  C  C72  1  0.61843200  0.68116500  0.31576100  1
  C  C73  1  0.38156800  0.31883500  0.68423900  1
  C  C74  1  0.43615000  0.30010300  0.51165500  1
  C  C75  1  0.56385000  0.69989700  0.48834500  1
  C  C76  1  0.64737900  0.13974200  0.48282300  1
  C  C77  1  0.35262100  0.86025800  0.51717700  1
  C  C78  1  0.60587400  0.84337500  0.63149600  1
  C  C79  1  0.39412600  0.15662500  0.36850400  1
  C  C80  1  0.31999300  0.69387100  0.61070400  1
  C  C81  1  0.68000700  0.30612900  0.38929600  1
  C  C82  1  0.47670000  0.63145700  0.74941000  1
  C  C83  1  0.52330000  0.36854300  0.25059000  1
  C  C84  1  0.14833900  0.55022700  0.70218900  1
  C  C85  1  0.85166100  0.44977300  0.29781100  1
  C  C86  1  0.59260400  0.50570800  0.40292900  1
  C  C87  1  0.40739600  0.49429200  0.59707100  1
  C  C88  1  0.80668900  0.41471600  0.85608600  1
  C  C89  1  0.19331100  0.58528400  0.14391400  1
  C  C90  1  0.54667000  0.23402500  0.86604400  1
  C  C91  1  0.45333000  0.76597500  0.13395600  1
  C  C92  1  0.38269300  0.12429200  0.14243200  1
  C  C93  1  0.61730700  0.87570800  0.85756800  1
  C  C94  1  0.21650400  0.06436400  0.60115900  1
  C  C95  1  0.78349600  0.93563600  0.39884100  1
  C  C96  1  0.12934100  0.37453900  0.37510100  1
  C  C97  1  0.87065900  0.62546100  0.62489900  1
  C  C98  1  0.96471900  0.79015700  0.48711000  1
  C  C99  1  0.03528100  0.20984300  0.51289000  1
  C  C100  1  0.37018100  0.91271900  0.33930400  1
  C  C101  1  0.62981900  0.08728100  0.66069600  1
  C  C102  1  0.70429200  0.57186800  0.07866900  1
  C  C103  1  0.29570800  0.42813200  0.92133100  1
