# generated using pymatgen
data_Cu2(NiC3)5
_symmetry_space_group_name_H-M   'P 1'
_cell_length_a   5.14601765
_cell_length_b   5.14601765
_cell_length_c   9.83422496
_cell_angle_alpha   84.76512365
_cell_angle_beta   84.76512365
_cell_angle_gamma   121.20187562
_symmetry_Int_Tables_number   1
_chemical_formula_structural   Cu2(NiC3)5
_chemical_formula_sum   'Cu2 Ni5 C15'
_cell_volume   218.87244027
_cell_formula_units_Z   1
loop_
 _symmetry_equiv_pos_site_id
 _symmetry_equiv_pos_as_xyz
  1  'x, y, z'
loop_
 _atom_site_type_symbol
 _atom_site_label
 _atom_site_symmetry_multiplicity
 _atom_site_fract_x
 _atom_site_fract_y
 _atom_site_fract_z
 _atom_site_occupancy
  C  C0  1  0.67283000  0.85019800  0.74141100  1
  C  C1  1  0.14980200  0.32717000  0.25858900  1
  C  C2  1  0.07941700  0.92058300  0.50000000  1
  Ni  Ni3  1  0.92121400  0.07878600  0.00000000  1
  Ni  Ni4  1  0.01308300  0.52554100  0.73453100  1
  Ni  Ni5  1  0.47445900  0.98691700  0.26546900  1
  Ni  Ni6  1  0.58397300  0.41602700  0.00000000  1
  Ni  Ni7  1  0.43212400  0.56787600  0.50000000  1
  Cu  Cu8  1  0.74551600  0.25448400  0.50000000  1
  Cu  Cu9  1  0.24845600  0.75154400  0.00000000  1
  C  C10  1  0.87906100  0.36967200  0.11195200  1
  C  C11  1  0.63032800  0.12093900  0.88804800  1
  C  C12  1  0.72688700  0.54668300  0.61883200  1
  C  C13  1  0.96125900  0.77411800  0.88709700  1
  C  C14  1  0.45331700  0.27311300  0.38116800  1
  C  C15  1  0.76620100  0.96750100  0.37660900  1
  C  C16  1  0.52036200  0.71885300  0.11134100  1
  C  C17  1  0.22588200  0.03874100  0.11290300  1
  C  C18  1  0.39210100  0.86032200  0.61728100  1
  C  C19  1  0.03249900  0.23379900  0.62339100  1
  C  C20  1  0.28114700  0.47963800  0.88865900  1
  C  C21  1  0.13967800  0.60789900  0.38271900  1
