# generated using pymatgen
data_Cu3NiC37
_symmetry_space_group_name_H-M   'P 1'
_cell_length_a   8.80942504
_cell_length_b   8.80942504
_cell_length_c   8.80942561
_cell_angle_alpha   60.05639970
_cell_angle_beta   60.05639970
_cell_angle_gamma   60.05640086
_symmetry_Int_Tables_number   1
_chemical_formula_structural   Cu3NiC37
_chemical_formula_sum   'Cu3 Ni1 C37'
_cell_volume   484.04141016
_cell_formula_units_Z   1
loop_
 _symmetry_equiv_pos_site_id
 _symmetry_equiv_pos_as_xyz
  1  'x, y, z'
loop_
 _atom_site_type_symbol
 _atom_site_label
 _atom_site_symmetry_multiplicity
 _atom_site_fract_x
 _atom_site_fract_y
 _atom_site_fract_z
 _atom_site_occupancy
  C  C0  1  0.27798100  0.11044900  0.77171200  1
  C  C1  1  0.47593500  0.47593500  0.47593500  1
  C  C2  1  0.77171200  0.27798100  0.11044900  1
  C  C3  1  0.11044900  0.77171200  0.27798100  1
  C  C4  1  0.83962300  0.29414500  0.66531800  1
  C  C5  1  0.29414500  0.66531800  0.83962300  1
  C  C6  1  0.66531800  0.83962300  0.29414500  1
  Ni  Ni7  1  0.85459500  0.85459500  0.85459500  1
  Cu  Cu8  1  0.35095800  0.35095800  0.35095800  1
  Cu  Cu9  1  0.14856300  0.14856300  0.14856300  1
  Cu  Cu10  1  0.65083600  0.65083600  0.65083600  1
  C  C11  1  0.45690900  0.75193700  0.04355400  1
  C  C12  1  0.75193700  0.04355400  0.45690900  1
  C  C13  1  0.04355400  0.45690900  0.75193700  1
  C  C14  1  0.95854900  0.53994300  0.25007300  1
  C  C15  1  0.25007300  0.95854900  0.53994300  1
  C  C16  1  0.53994300  0.25007300  0.95854900  1
  C  C17  1  0.27488900  0.92247600  0.05759500  1
  C  C18  1  0.47700200  0.71014600  0.88070200  1
  C  C19  1  0.42200200  0.59173700  0.23209000  1
  C  C20  1  0.71014600  0.88070200  0.47700200  1
  C  C21  1  0.59173700  0.23209000  0.42200200  1
  C  C22  1  0.88070200  0.47700200  0.71014600  1
  C  C23  1  0.62680300  0.78580100  0.00878100  1
  C  C24  1  0.92247600  0.05759500  0.27488900  1
  C  C25  1  0.78580100  0.00878100  0.62680300  1
  C  C26  1  0.05759500  0.27488900  0.92247600  1
  C  C27  1  0.23209000  0.42200200  0.59173700  1
  C  C28  1  0.00878100  0.62680300  0.78580100  1
  C  C29  1  0.78178100  0.55109200  0.42683800  1
  C  C30  1  0.99439800  0.37568200  0.20689700  1
  C  C31  1  0.91752200  0.72973600  0.09462600  1
  C  C32  1  0.20689700  0.99439800  0.37568200  1
  C  C33  1  0.09462600  0.91752200  0.72973600  1
  C  C34  1  0.37568200  0.20689700  0.99439800  1
  C  C35  1  0.12570600  0.52623400  0.28050900  1
  C  C36  1  0.42683800  0.78178100  0.55109200  1
  C  C37  1  0.28050900  0.12570600  0.52623400  1
  C  C38  1  0.55109200  0.42683800  0.78178100  1
  C  C39  1  0.52623400  0.28050900  0.12570600  1
  C  C40  1  0.72973600  0.09462600  0.91752200  1
