# generated using pymatgen
data_Cu2Ni8C15
_symmetry_space_group_name_H-M   'P 1'
_cell_length_a   12.20937387
_cell_length_b   12.20937387
_cell_length_c   12.13032050
_cell_angle_alpha   64.85597653
_cell_angle_beta   64.85597653
_cell_angle_gamma   46.42184222
_symmetry_Int_Tables_number   1
_chemical_formula_structural   Cu2Ni8C15
_chemical_formula_sum   'Cu8 Ni32 C60'
_cell_volume   1161.56308642
_cell_formula_units_Z   4
loop_
 _symmetry_equiv_pos_site_id
 _symmetry_equiv_pos_as_xyz
  1  'x, y, z'
loop_
 _atom_site_type_symbol
 _atom_site_label
 _atom_site_symmetry_multiplicity
 _atom_site_fract_x
 _atom_site_fract_y
 _atom_site_fract_z
 _atom_site_occupancy
  C  C0  1  0.63774100  0.60350100  0.79880800  1
  C  C1  1  0.39649900  0.36225900  0.70119200  1
  C  C2  1  0.36225900  0.39649900  0.20119200  1
  C  C3  1  0.60350100  0.63774100  0.29880800  1
  C  C4  1  0.11867600  0.13751900  0.79162600  1
  C  C5  1  0.86248100  0.88132400  0.70837400  1
  C  C6  1  0.88132400  0.86248100  0.20837400  1
  C  C7  1  0.13751900  0.11867600  0.29162600  1
  C  C8  1  0.24915700  0.75084300  0.75000000  1
  C  C9  1  0.75084300  0.24915700  0.25000000  1
  C  C10  1  0.00000000  0.50000000  0.50000000  1
  C  C11  1  0.50000000  0.00000000  0.00000000  1
  Ni  Ni12  1  0.70211900  0.68699500  0.47608000  1
  Ni  Ni13  1  0.31300500  0.29788100  0.02392000  1
  Ni  Ni14  1  0.29788100  0.31300500  0.52392000  1
  Ni  Ni15  1  0.68699500  0.70211900  0.97608000  1
  Ni  Ni16  1  0.74401500  0.52231900  0.53349400  1
  Ni  Ni17  1  0.47768100  0.25598500  0.96650600  1
  Ni  Ni18  1  0.25598500  0.47768100  0.46650600  1
  Ni  Ni19  1  0.52231900  0.74401500  0.03349400  1
  Ni  Ni20  1  0.19509100  0.19299900  0.47914000  1
  Ni  Ni21  1  0.80700100  0.80490900  0.02086000  1
  Ni  Ni22  1  0.80490900  0.80700100  0.52086000  1
  Ni  Ni23  1  0.19299900  0.19509100  0.97914000  1
  Ni  Ni24  1  0.02649900  0.24226400  0.52984900  1
  Ni  Ni25  1  0.75773600  0.97350100  0.97015100  1
  Ni  Ni26  1  0.97350100  0.75773600  0.47015100  1
  Ni  Ni27  1  0.24226400  0.02649900  0.02984900  1
  Ni  Ni28  1  0.55664400  0.48256100  0.67398400  1
  Ni  Ni29  1  0.51743900  0.44335600  0.82601600  1
  Ni  Ni30  1  0.44335600  0.51743900  0.32601600  1
  Ni  Ni31  1  0.48256100  0.55664400  0.17398400  1
  Ni  Ni32  1  0.98164300  0.05713000  0.67399100  1
  Ni  Ni33  1  0.94287000  0.01835700  0.82600900  1
  Ni  Ni34  1  0.01835700  0.94287000  0.32600900  1
  Ni  Ni35  1  0.05713000  0.98164300  0.17399100  1
  Ni  Ni36  1  0.36786900  0.90880500  0.54020300  1
  Ni  Ni37  1  0.09119500  0.63213100  0.95979700  1
  Ni  Ni38  1  0.63213100  0.09119500  0.45979700  1
  Ni  Ni39  1  0.90880500  0.36786900  0.04020300  1
  Ni  Ni40  1  0.39917200  0.88314800  0.66673500  1
  Ni  Ni41  1  0.11685200  0.60082800  0.83326500  1
  Ni  Ni42  1  0.60082800  0.11685200  0.33326500  1
  Ni  Ni43  1  0.88314800  0.39917200  0.16673500  1
  Cu  Cu44  1  0.73004800  0.22483700  0.97918400  1
  Cu  Cu45  1  0.77516300  0.26995200  0.52081600  1
  Cu  Cu46  1  0.26995200  0.77516300  0.02081600  1
  Cu  Cu47  1  0.22483700  0.73004800  0.47918400  1
  Cu  Cu48  1  0.98159700  0.49881700  0.79796000  1
  Cu  Cu49  1  0.50118300  0.01840300  0.70204000  1
  Cu  Cu50  1  0.01840300  0.50118300  0.20204000  1
  Cu  Cu51  1  0.49881700  0.98159700  0.29796000  1
  C  C52  1  0.56804400  0.32049400  0.96290000  1
  C  C53  1  0.67950500  0.43195600  0.53710000  1
  C  C54  1  0.43195600  0.67950500  0.03710000  1
  C  C55  1  0.32049400  0.56804400  0.46290000  1
  C  C56  1  0.93756500  0.17920200  0.53328100  1
  C  C57  1  0.82079800  0.06243500  0.96671900  1
  C  C58  1  0.06243500  0.82079800  0.46671900  1
  C  C59  1  0.17920200  0.93756500  0.03328100  1
  C  C60  1  0.35763900  0.04303100  0.39988500  1
  C  C61  1  0.95696900  0.64236100  0.10011500  1
  C  C62  1  0.64236100  0.95696900  0.60011500  1
  C  C63  1  0.04303100  0.35763900  0.89988500  1
  C  C64  1  0.62956900  0.82358300  0.34696400  1
  C  C65  1  0.17641700  0.37043100  0.15303600  1
  C  C66  1  0.37043100  0.17641700  0.65303600  1
  C  C67  1  0.82358300  0.62956900  0.84696400  1
  C  C68  1  0.21942200  0.72028600  0.60778300  1
  C  C69  1  0.27971400  0.78057800  0.89221700  1
  C  C70  1  0.78057800  0.27971400  0.39221700  1
  C  C71  1  0.72028600  0.21942200  0.10778300  1
  C  C72  1  0.80549300  0.29202200  0.88500500  1
  C  C73  1  0.70797800  0.19450700  0.61499500  1
  C  C74  1  0.19450700  0.70797800  0.11499500  1
  C  C75  1  0.29202200  0.80549300  0.38500500  1
  C  C76  1  0.97292800  0.46127200  0.70039600  1
  C  C77  1  0.53872800  0.02707200  0.79960400  1
  C  C78  1  0.02707200  0.53872800  0.29960400  1
  C  C79  1  0.46127200  0.97292800  0.20039600  1
  C  C80  1  0.08407700  0.54274300  0.74390900  1
  C  C81  1  0.45725700  0.91592300  0.75609100  1
  C  C82  1  0.91592300  0.45725700  0.25609100  1
  C  C83  1  0.54274300  0.08407700  0.24390900  1
  C  C84  1  0.75910500  0.59082100  0.53797600  1
  C  C85  1  0.40917900  0.24089500  0.96202400  1
  C  C86  1  0.24089500  0.40917900  0.46202400  1
  C  C87  1  0.59082100  0.75910500  0.03797600  1
  C  C88  1  0.09437100  0.25950700  0.53250100  1
  C  C89  1  0.74049300  0.90562900  0.96749900  1
  C  C90  1  0.90562900  0.74049300  0.46749900  1
  C  C91  1  0.25950700  0.09437100  0.03250100  1
  C  C92  1  0.47752900  0.52247100  0.75000000  1
  C  C93  1  0.52247100  0.47752900  0.25000000  1
  C  C94  1  0.02149600  0.97850400  0.75000000  1
  C  C95  1  0.97850400  0.02149600  0.25000000  1
  C  C96  1  0.36251200  0.85777000  0.62935500  1
  C  C97  1  0.14223000  0.63748800  0.87064500  1
  C  C98  1  0.63748800  0.14223000  0.37064500  1
  C  C99  1  0.85777000  0.36251200  0.12935500  1
