# generated using pymatgen
data_Cu2Ni2C15
_symmetry_space_group_name_H-M   'P 1'
_cell_length_a   6.30183500
_cell_length_b   11.63805900
_cell_length_c   13.69536300
_cell_angle_alpha   90.00000000
_cell_angle_beta   90.00000000
_cell_angle_gamma   90.00000000
_symmetry_Int_Tables_number   1
_chemical_formula_structural   Cu2Ni2C15
_chemical_formula_sum   'Cu8 Ni8 C60'
_cell_volume   1004.43336447
_cell_formula_units_Z   4
loop_
 _symmetry_equiv_pos_site_id
 _symmetry_equiv_pos_as_xyz
  1  'x, y, z'
loop_
 _atom_site_type_symbol
 _atom_site_label
 _atom_site_symmetry_multiplicity
 _atom_site_fract_x
 _atom_site_fract_y
 _atom_site_fract_z
 _atom_site_occupancy
  Ni  Ni0  1  0.02026000  0.16941800  0.13079400  1
  Ni  Ni1  1  0.02026000  0.16941800  0.36920600  1
  Ni  Ni2  1  0.02026000  0.33058200  0.63079400  1
  Ni  Ni3  1  0.02026000  0.33058200  0.86920600  1
  Ni  Ni4  1  0.97974000  0.66941800  0.13079400  1
  Ni  Ni5  1  0.97974000  0.66941800  0.36920600  1
  Ni  Ni6  1  0.97974000  0.83058200  0.86920600  1
  Ni  Ni7  1  0.97974000  0.83058200  0.63079400  1
  Cu  Cu8  1  0.20627700  0.42017200  0.25000000  1
  Cu  Cu9  1  0.20627700  0.07982800  0.75000000  1
  Cu  Cu10  1  0.47597600  0.67081000  0.25000000  1
  Cu  Cu11  1  0.47597600  0.82919000  0.75000000  1
  Cu  Cu12  1  0.52402400  0.17081000  0.25000000  1
  Cu  Cu13  1  0.52402400  0.32919000  0.75000000  1
  Cu  Cu14  1  0.79372300  0.57982800  0.75000000  1
  Cu  Cu15  1  0.79372300  0.92017200  0.25000000  1
  C  C16  1  0.28361600  0.30826800  0.02755400  1
  C  C17  1  0.28361600  0.30826800  0.47244600  1
  C  C18  1  0.28361600  0.19173200  0.52755400  1
  C  C19  1  0.28361600  0.19173200  0.97244600  1
  C  C20  1  0.71638400  0.69173200  0.52755400  1
  C  C21  1  0.71638400  0.80826800  0.02755400  1
  C  C22  1  0.71638400  0.80826800  0.47244600  1
  C  C23  1  0.71638400  0.69173200  0.97244600  1
  C  C24  1  0.27440900  0.91193300  0.07595900  1
  C  C25  1  0.27440900  0.58806700  0.92404100  1
  C  C26  1  0.27440900  0.58806700  0.57595900  1
  C  C27  1  0.27440900  0.91193300  0.42404100  1
  C  C28  1  0.72559100  0.41193300  0.42404100  1
  C  C29  1  0.72559100  0.41193300  0.07595900  1
  C  C30  1  0.72559100  0.08806700  0.57595900  1
  C  C31  1  0.72559100  0.08806700  0.92404100  1
  C  C32  1  0.10128900  0.83434900  0.14244100  1
  C  C33  1  0.10128900  0.83434900  0.35755900  1
  C  C34  1  0.10128900  0.66565100  0.64244100  1
  C  C35  1  0.10128900  0.66565100  0.85755900  1
  C  C36  1  0.16823000  0.60215600  0.25000000  1
  C  C37  1  0.16823000  0.89784400  0.75000000  1
  C  C38  1  0.18329400  0.25000000  0.00000000  1
  C  C39  1  0.18329400  0.25000000  0.50000000  1
  C  C40  1  0.22004500  0.59579200  0.04353400  1
  C  C41  1  0.22004500  0.59579200  0.45646600  1
  C  C42  1  0.22004500  0.90420800  0.54353400  1
  C  C43  1  0.22004500  0.90420800  0.95646600  1
  C  C44  1  0.21586900  0.23511200  0.25000000  1
  C  C45  1  0.21586900  0.26488800  0.75000000  1
  C  C46  1  0.25737700  0.04770500  0.11714400  1
  C  C47  1  0.25737700  0.04770500  0.38285600  1
  C  C48  1  0.25737700  0.45229500  0.61714400  1
  C  C49  1  0.25737700  0.45229500  0.88285600  1
  C  C50  1  0.48125100  0.13537000  0.60042100  1
  C  C51  1  0.48125100  0.36463000  0.10042100  1
  C  C52  1  0.48125100  0.13537000  0.89957900  1
  C  C53  1  0.48125100  0.36463000  0.39957900  1
  C  C54  1  0.51874900  0.63537000  0.60042100  1
  C  C55  1  0.51874900  0.86463000  0.10042100  1
  C  C56  1  0.51874900  0.86463000  0.39957900  1
  C  C57  1  0.51874900  0.63537000  0.89957900  1
  C  C58  1  0.74262300  0.54770500  0.11714400  1
  C  C59  1  0.74262300  0.54770500  0.38285600  1
  C  C60  1  0.74262300  0.95229500  0.61714400  1
  C  C61  1  0.74262300  0.95229500  0.88285600  1
  C  C62  1  0.78413100  0.73511200  0.25000000  1
  C  C63  1  0.78413100  0.76488800  0.75000000  1
  C  C64  1  0.77995500  0.09579200  0.45646600  1
  C  C65  1  0.77995500  0.40420800  0.54353400  1
  C  C66  1  0.77995500  0.09579200  0.04353400  1
  C  C67  1  0.77995500  0.40420800  0.95646600  1
  C  C68  1  0.81670600  0.75000000  0.50000000  1
  C  C69  1  0.81670600  0.75000000  0.00000000  1
  C  C70  1  0.83177000  0.10215600  0.25000000  1
  C  C71  1  0.83177000  0.39784400  0.75000000  1
  C  C72  1  0.89871100  0.33434900  0.14244100  1
  C  C73  1  0.89871100  0.33434900  0.35755900  1
  C  C74  1  0.89871100  0.16565100  0.64244100  1
  C  C75  1  0.89871100  0.16565100  0.85755900  1
