# generated using pymatgen
data_Cu6Ni2C
_symmetry_space_group_name_H-M   'P 1'
_cell_length_a   11.83106800
_cell_length_b   7.53115600
_cell_length_c   9.11441036
_cell_angle_alpha   53.40897437
_cell_angle_beta   90.00000000
_cell_angle_gamma   90.00000000
_symmetry_Int_Tables_number   1
_chemical_formula_structural   Cu6Ni2C
_chemical_formula_sum   'Cu24 Ni8 C4'
_cell_volume   652.05090304
_cell_formula_units_Z   4
loop_
 _symmetry_equiv_pos_site_id
 _symmetry_equiv_pos_as_xyz
  1  'x, y, z'
loop_
 _atom_site_type_symbol
 _atom_site_label
 _atom_site_symmetry_multiplicity
 _atom_site_fract_x
 _atom_site_fract_y
 _atom_site_fract_z
 _atom_site_occupancy
  C  C0  1  0.90136900  0.23428500  0.99283900  1
  C  C1  1  0.40136900  0.76571500  0.50716100  1
  C  C2  1  0.59863100  0.23428500  0.49283900  1
  C  C3  1  0.09863100  0.76571500  0.00716100  1
  Ni  Ni4  1  0.21394000  0.31718900  0.94202700  1
  Ni  Ni5  1  0.71394000  0.68281100  0.55797300  1
  Ni  Ni6  1  0.07469800  0.76393400  0.46310500  1
  Ni  Ni7  1  0.57469800  0.23606600  0.03689500  1
  Ni  Ni8  1  0.42530200  0.76393400  0.96310500  1
  Ni  Ni9  1  0.92530200  0.23606600  0.53689500  1
  Ni  Ni10  1  0.28606000  0.31718900  0.44202700  1
  Ni  Ni11  1  0.78606000  0.68281100  0.05797300  1
  Cu  Cu12  1  0.10787100  0.12026200  0.97510100  1
  Cu  Cu13  1  0.90795300  0.37390900  0.64874500  1
  Cu  Cu14  1  0.61017100  0.48004300  0.59557400  1
  Cu  Cu15  1  0.25376000  0.44823400  0.70396100  1
  Cu  Cu16  1  0.75376000  0.55176600  0.79603900  1
  Cu  Cu17  1  0.70065900  0.06024900  0.12135400  1
  Cu  Cu18  1  0.46221900  0.03292900  0.16577200  1
  Cu  Cu19  1  0.11017100  0.51995700  0.90442600  1
  Cu  Cu20  1  0.96221900  0.96707100  0.33422800  1
  Cu  Cu21  1  0.20065900  0.93975100  0.37864600  1
  Cu  Cu22  1  0.40795300  0.62609100  0.85125500  1
  Cu  Cu23  1  0.60787100  0.87973800  0.52489900  1
  Cu  Cu24  1  0.39212900  0.12026200  0.47510100  1
  Cu  Cu25  1  0.59204700  0.37390900  0.14874500  1
  Cu  Cu26  1  0.79934100  0.06024900  0.62135400  1
  Cu  Cu27  1  0.03778100  0.03292900  0.66577200  1
  Cu  Cu28  1  0.88982900  0.48004300  0.09557400  1
  Cu  Cu29  1  0.53778100  0.96707100  0.83422800  1
  Cu  Cu30  1  0.29934100  0.93975100  0.87864600  1
  Cu  Cu31  1  0.24624000  0.44823400  0.20396100  1
  Cu  Cu32  1  0.74624000  0.55176600  0.29603900  1
  Cu  Cu33  1  0.38982900  0.51995700  0.40442600  1
  Cu  Cu34  1  0.09204700  0.62609100  0.35125500  1
  Cu  Cu35  1  0.89212900  0.87973800  0.02489900  1
