# generated using pymatgen
data_Cu8Ni9C4
_symmetry_space_group_name_H-M   'P 1'
_cell_length_a   11.84747900
_cell_length_b   6.31391100
_cell_length_c   8.50378458
_cell_angle_alpha   72.79958073
_cell_angle_beta   90.00000000
_cell_angle_gamma   90.00000000
_symmetry_Int_Tables_number   1
_chemical_formula_structural   Cu8Ni9C4
_chemical_formula_sum   'Cu16 Ni18 C8'
_cell_volume   607.66694120
_cell_formula_units_Z   2
loop_
 _symmetry_equiv_pos_site_id
 _symmetry_equiv_pos_as_xyz
  1  'x, y, z'
loop_
 _atom_site_type_symbol
 _atom_site_label
 _atom_site_symmetry_multiplicity
 _atom_site_fract_x
 _atom_site_fract_y
 _atom_site_fract_z
 _atom_site_occupancy
  C  C0  1  0.75000000  0.75220800  0.00893800  1
  C  C1  1  0.75000000  0.63350400  0.31768500  1
  C  C2  1  0.25000000  0.24779200  0.99106200  1
  C  C3  1  0.25000000  0.36649600  0.68231500  1
  Ni  Ni4  1  0.86043600  0.92012200  0.88873400  1
  Ni  Ni5  1  0.75000000  0.94262100  0.16134600  1
  Ni  Ni6  1  0.62963100  0.58562400  0.16405800  1
  Ni  Ni7  1  0.13847500  0.29313700  0.56413200  1
  Ni  Ni8  1  0.87036900  0.58562400  0.16405800  1
  Ni  Ni9  1  0.36043600  0.07987800  0.11126600  1
  Ni  Ni10  1  0.75000000  0.54549800  0.89808100  1
  Ni  Ni11  1  0.75000000  0.33860700  0.42869800  1
  Ni  Ni12  1  0.36152500  0.29313700  0.56413200  1
  Ni  Ni13  1  0.13956400  0.07987800  0.11126600  1
  Ni  Ni14  1  0.86152500  0.70686300  0.43586800  1
  Ni  Ni15  1  0.63847500  0.70686300  0.43586800  1
  Ni  Ni16  1  0.25000000  0.05737900  0.83865400  1
  Ni  Ni17  1  0.37036900  0.41437600  0.83594200  1
  Ni  Ni18  1  0.25000000  0.66139300  0.57130200  1
  Ni  Ni19  1  0.63956400  0.92012200  0.88873400  1
  Ni  Ni20  1  0.25000000  0.45450200  0.10191900  1
  Ni  Ni21  1  0.12963100  0.41437600  0.83594200  1
  Cu  Cu22  1  0.46113100  0.49033800  0.83460700  1
  Cu  Cu23  1  0.92670200  0.03612100  0.80688200  1
  Cu  Cu24  1  0.75000000  0.15367700  0.50553400  1
  Cu  Cu25  1  0.57021200  0.75523700  0.51619100  1
  Cu  Cu26  1  0.03886900  0.49033800  0.83460700  1
  Cu  Cu27  1  0.42978800  0.24476300  0.48380900  1
  Cu  Cu28  1  0.42670200  0.96387900  0.19311800  1
  Cu  Cu29  1  0.25000000  0.84632300  0.49446600  1
  Cu  Cu30  1  0.25000000  0.57432800  0.18177900  1
  Cu  Cu31  1  0.92978800  0.75523700  0.51619100  1
  Cu  Cu32  1  0.75000000  0.42567200  0.81822100  1
  Cu  Cu33  1  0.57329800  0.03612100  0.80688200  1
  Cu  Cu34  1  0.53886900  0.50966200  0.16539300  1
  Cu  Cu35  1  0.07329800  0.96387900  0.19311800  1
  Cu  Cu36  1  0.96113100  0.50966200  0.16539300  1
  Cu  Cu37  1  0.07021200  0.24476300  0.48380900  1
  C  C38  1  0.65883500  0.07868100  0.15990800  1
  C  C39  1  0.34116500  0.92131900  0.84009200  1
  C  C40  1  0.84116500  0.07868100  0.15990800  1
  C  C41  1  0.15883500  0.92131900  0.84009200  1
