# generated using pymatgen
data_Cu7(NiC3)3
_symmetry_space_group_name_H-M   'P 1'
_cell_length_a   7.25255200
_cell_length_b   7.34379800
_cell_length_c   17.74345900
_cell_angle_alpha   90.00000000
_cell_angle_beta   90.00000000
_cell_angle_gamma   90.00000000
_symmetry_Int_Tables_number   1
_chemical_formula_structural   Cu7(NiC3)3
_chemical_formula_sum   'Cu28 Ni12 C36'
_cell_volume   945.03928247
_cell_formula_units_Z   4
loop_
 _symmetry_equiv_pos_site_id
 _symmetry_equiv_pos_as_xyz
  1  'x, y, z'
loop_
 _atom_site_type_symbol
 _atom_site_label
 _atom_site_symmetry_multiplicity
 _atom_site_fract_x
 _atom_site_fract_y
 _atom_site_fract_z
 _atom_site_occupancy
  C  C0  1  0.80452300  0.52104700  0.12321000  1
  C  C1  1  0.69547700  0.47895300  0.62321000  1
  C  C2  1  0.30452300  0.97895300  0.87679000  1
  C  C3  1  0.19547700  0.02104700  0.37679000  1
  Ni  Ni4  1  0.36781300  0.80522600  0.12674900  1
  Ni  Ni5  1  0.13218700  0.19477400  0.62674900  1
  Ni  Ni6  1  0.86781300  0.69477400  0.87325100  1
  Ni  Ni7  1  0.63218700  0.30522600  0.37325100  1
  Ni  Ni8  1  0.44142500  0.38799700  0.97483800  1
  Ni  Ni9  1  0.05857500  0.61200300  0.47483800  1
  Ni  Ni10  1  0.94142500  0.11200300  0.02516200  1
  Ni  Ni11  1  0.55857500  0.88799700  0.52516200  1
  Ni  Ni12  1  0.21142900  0.35470500  0.22761000  1
  Ni  Ni13  1  0.28857100  0.64529500  0.72761000  1
  Ni  Ni14  1  0.71142900  0.14529500  0.77239000  1
  Ni  Ni15  1  0.78857100  0.85470500  0.27239000  1
  Cu  Cu16  1  0.22670900  0.80393100  0.18087900  1
  Cu  Cu17  1  0.27329100  0.19606900  0.68087900  1
  Cu  Cu18  1  0.72670900  0.69606900  0.81912100  1
  Cu  Cu19  1  0.77329100  0.30393100  0.31912100  1
  Cu  Cu20  1  0.29452000  0.73179200  0.05990100  1
  Cu  Cu21  1  0.20548000  0.26820800  0.55990100  1
  Cu  Cu22  1  0.79452000  0.76820800  0.94009900  1
  Cu  Cu23  1  0.70548000  0.23179200  0.44009900  1
  Cu  Cu24  1  0.41692100  0.06667400  0.06002200  1
  Cu  Cu25  1  0.08307900  0.93332600  0.56002200  1
  Cu  Cu26  1  0.91692100  0.43332600  0.93997800  1
  Cu  Cu27  1  0.58307900  0.56667400  0.43997800  1
  Cu  Cu28  1  0.48576900  0.44017400  0.90031100  1
  Cu  Cu29  1  0.01423100  0.55982600  0.40031100  1
  Cu  Cu30  1  0.98576900  0.05982600  0.09968900  1
  Cu  Cu31  1  0.51423100  0.94017400  0.59968900  1
  Cu  Cu32  1  0.26238300  0.45686500  0.98796700  1
  Cu  Cu33  1  0.23761700  0.54313500  0.48796700  1
  Cu  Cu34  1  0.76238300  0.04313500  0.01203300  1
  Cu  Cu35  1  0.73761700  0.95686500  0.51203300  1
  Cu  Cu36  1  0.22694900  0.49511800  0.28185600  1
  Cu  Cu37  1  0.27305100  0.50488200  0.78185600  1
  Cu  Cu38  1  0.72694900  0.00488200  0.71814400  1
  Cu  Cu39  1  0.77305100  0.99511800  0.21814400  1
  Cu  Cu40  1  0.39230200  0.31976100  0.20260700  1
  Cu  Cu41  1  0.10769800  0.68023900  0.70260700  1
  Cu  Cu42  1  0.89230200  0.18023900  0.79739300  1
  Cu  Cu43  1  0.60769800  0.81976100  0.29739300  1
  C  C44  1  0.71298200  0.32807600  0.17437900  1
  C  C45  1  0.78701800  0.67192400  0.67437900  1
  C  C46  1  0.21298200  0.17192400  0.82562100  1
  C  C47  1  0.28701800  0.82807600  0.32562100  1
  C  C48  1  0.89706100  0.71038900  0.06891400  1
  C  C49  1  0.60293900  0.28961100  0.56891400  1
  C  C50  1  0.39706100  0.78961100  0.93108600  1
  C  C51  1  0.10293900  0.21038900  0.43108600  1
  C  C52  1  0.53248000  0.69911500  0.15572900  1
  C  C53  1  0.96752000  0.30088500  0.65572900  1
  C  C54  1  0.03248000  0.80088500  0.84427100  1
  C  C55  1  0.46752000  0.19911500  0.34427100  1
  C  C56  1  0.40163700  0.01431800  0.11242400  1
  C  C57  1  0.09836300  0.98568200  0.61242400  1
  C  C58  1  0.90163700  0.48568200  0.88757600  1
  C  C59  1  0.59836300  0.51431800  0.38757600  1
  C  C60  1  0.57640900  0.47451400  0.02982400  1
  C  C61  1  0.92359100  0.52548600  0.52982400  1
  C  C62  1  0.07640900  0.02548600  0.97017600  1
  C  C63  1  0.42359100  0.97451400  0.47017600  1
  C  C64  1  0.43007700  0.17781900  0.97765300  1
  C  C65  1  0.06992300  0.82218100  0.47765300  1
  C  C66  1  0.93007700  0.32218100  0.02234700  1
  C  C67  1  0.56992300  0.67781900  0.52234700  1
  C  C68  1  0.10179300  0.43054300  0.16048600  1
  C  C69  1  0.39820700  0.56945700  0.66048600  1
  C  C70  1  0.60179300  0.06945700  0.83951400  1
  C  C71  1  0.89820700  0.93054300  0.33951400  1
  C  C72  1  0.13201000  0.18313400  0.26520900  1
  C  C73  1  0.36799000  0.81686600  0.76520900  1
  C  C74  1  0.63201000  0.31686600  0.73479100  1
  C  C75  1  0.86799000  0.68313400  0.23479100  1
