# generated using pymatgen
data_Cu3NiC38
_symmetry_space_group_name_H-M   'P 1'
_cell_length_a   8.44641200
_cell_length_b   8.51529818
_cell_length_c   9.25212316
_cell_angle_alpha   90.63229241
_cell_angle_beta   116.97364069
_cell_angle_gamma   119.22780330
_symmetry_Int_Tables_number   1
_chemical_formula_structural   Cu3NiC38
_chemical_formula_sum   'Cu3 Ni1 C38'
_cell_volume   493.88293207
_cell_formula_units_Z   1
loop_
 _symmetry_equiv_pos_site_id
 _symmetry_equiv_pos_as_xyz
  1  'x, y, z'
loop_
 _atom_site_type_symbol
 _atom_site_label
 _atom_site_symmetry_multiplicity
 _atom_site_fract_x
 _atom_site_fract_y
 _atom_site_fract_z
 _atom_site_occupancy
  C  C0  1  0.18689100  0.26355200  0.86172100  1
  C  C1  1  0.62577100  0.93482900  0.89714200  1
  C  C2  1  0.93383200  0.66456500  0.85278100  1
  C  C3  1  0.32902800  0.77904400  0.58572700  1
  C  C4  1  0.68231100  0.19686000  0.41524000  1
  C  C5  1  0.06606400  0.34710400  0.14808200  1
  C  C6  1  0.37972900  0.06952900  0.10142200  1
  C  C7  1  0.80473400  0.72418800  0.14383800  1
  Ni  Ni8  1  0.29727800  0.15375900  0.44607700  1
  Cu  Cu9  1  0.30671900  0.64605600  0.96439500  1
  Cu  Cu10  1  0.71011900  0.84902900  0.55985300  1
  Cu  Cu11  1  0.69114800  0.35275000  0.03421100  1
  C  C12  1  0.21130900  0.95517200  0.74602000  1
  C  C13  1  0.49298100  0.54085400  0.75094900  1
  C  C14  1  0.79739700  0.24880600  0.75873400  1
  C  C15  1  0.20337900  0.76226000  0.24334800  1
  C  C16  1  0.49606900  0.44879800  0.25128200  1
  C  C17  1  0.80099800  0.05078600  0.25595300  1
  C  C18  1  0.34394700  0.14082100  0.89220800  1
  C  C19  1  0.32574800  0.48290800  0.79988200  1
  C  C20  1  0.31889800  0.84310300  0.78855800  1
  C  C21  1  0.70057100  0.56686300  0.89738900  1
  C  C22  1  0.75083600  0.19996100  0.90282100  1
  C  C23  1  0.55275900  0.73164000  0.71177800  1
  C  C24  1  0.20338400  0.00507100  0.57980500  1
  C  C25  1  0.39906800  0.38237400  0.59047700  1
  C  C26  1  0.95927300  0.46157400  0.80526400  1
  C  C27  1  0.88051800  0.13291300  0.73190800  1
  C  C28  1  0.58572200  0.18961800  0.58582600  1
  C  C29  1  0.98901200  0.83851600  0.72024000  1
  C  C30  1  0.03420800  0.15816800  0.28598400  1
  C  C31  1  0.40196000  0.81647200  0.41313900  1
  C  C32  1  0.12310300  0.88737400  0.27035700  1
  C  C33  1  0.03084000  0.55132100  0.19009500  1
  C  C34  1  0.59199300  0.59380100  0.41129000  1
  C  C35  1  0.80816800  0.02505100  0.41998900  1
  C  C36  1  0.42073100  0.24643100  0.28630500  1
  C  C37  1  0.24855300  0.80783500  0.09696600  1
  C  C38  1  0.29028500  0.42484400  0.09897700  1
  C  C39  1  0.70273100  0.16977000  0.19908900  1
  C  C40  1  0.65559700  0.49260100  0.19561400  1
  C  C41  1  0.66634100  0.86303100  0.10925700  1
