# generated using pymatgen
data_CuNiC7
_symmetry_space_group_name_H-M   'P 1'
_cell_length_a   5.48861700
_cell_length_b   7.43203802
_cell_length_c   14.34969034
_cell_angle_alpha   95.14043722
_cell_angle_beta   91.48467393
_cell_angle_gamma   110.04188969
_symmetry_Int_Tables_number   1
_chemical_formula_structural   CuNiC7
_chemical_formula_sum   'Cu6 Ni6 C42'
_cell_volume   546.68454167
_cell_formula_units_Z   6
loop_
 _symmetry_equiv_pos_site_id
 _symmetry_equiv_pos_as_xyz
  1  'x, y, z'
loop_
 _atom_site_type_symbol
 _atom_site_label
 _atom_site_symmetry_multiplicity
 _atom_site_fract_x
 _atom_site_fract_y
 _atom_site_fract_z
 _atom_site_occupancy
  C  C0  1  0.25604800  0.86194400  0.69525700  1
  C  C1  1  0.06822500  0.46595600  0.64071500  1
  C  C2  1  0.40781900  0.79684600  0.97498300  1
  C  C3  1  0.59385100  0.20262400  0.02590400  1
  C  C4  1  0.93270100  0.53831700  0.35776700  1
  C  C5  1  0.74323600  0.13274800  0.30579700  1
  C  C6  1  0.33580800  0.33542800  0.83549000  1
  C  C7  1  0.66675700  0.66754300  0.66720400  1
  C  C8  1  0.66832400  0.66726500  0.16614500  1
  C  C9  1  0.33401900  0.33419400  0.33199400  1
  C  C10  1  0.99433700  0.99679500  0.49912500  1
  C  C11  1  0.00145400  0.99905100  0.00001000  1
  Ni  Ni12  1  0.01376100  0.37910400  0.14564000  1
  Ni  Ni13  1  0.32004200  0.95362900  0.18696300  1
  Ni  Ni14  1  0.34849700  0.71494000  0.48090700  1
  Ni  Ni15  1  0.64051100  0.28469100  0.51846500  1
  Ni  Ni16  1  0.68191800  0.04781000  0.81288100  1
  Ni  Ni17  1  0.99237000  0.61872300  0.85462400  1
  Cu  Cu18  1  0.05250400  0.98754800  0.32522900  1
  Cu  Cu19  1  0.27801800  0.34763500  0.00740100  1
  Cu  Cu20  1  0.39041100  0.32481100  0.66131000  1
  Cu  Cu21  1  0.61669000  0.68255000  0.33856200  1
  Cu  Cu22  1  0.72239500  0.65175400  0.99233600  1
  Cu  Cu23  1  0.94303700  0.00913400  0.67598100  1
  C  C24  1  0.09312900  0.83053000  0.90227100  1
  C  C25  1  0.05969800  0.84121900  0.22506600  1
  C  C26  1  0.13765900  0.79624300  0.44768700  1
  C  C27  1  0.21158700  0.54277100  0.88583900  1
  C  C28  1  0.29781000  0.95838900  0.07831300  1
  C  C29  1  0.03605500  0.37343700  0.25440400  1
  C  C30  1  0.35113800  0.70834900  0.58788200  1
  C  C31  1  0.24979400  0.50603600  0.43090100  1
  C  C32  1  0.05460900  0.09696600  0.37183400  1
  C  C33  1  0.27440800  0.49168900  0.10784700  1
  C  C34  1  0.28058400  0.23822300  0.96129800  1
  C  C35  1  0.57674500  0.83554000  0.76604800  1
  C  C36  1  0.54137000  0.87827800  0.21437100  1
  C  C37  1  0.38881800  0.43434800  0.70655200  1
  C  C38  1  0.61956200  0.82643200  0.44734200  1
  C  C39  1  0.37124600  0.17276000  0.55224100  1
  C  C40  1  0.61764400  0.57346000  0.29297200  1
  C  C41  1  0.46107900  0.12524700  0.78683100  1
  C  C42  1  0.42311700  0.16550200  0.23328900  1
  C  C43  1  0.72129600  0.76100500  0.03906000  1
  C  C44  1  0.72966300  0.50791800  0.89234300  1
  C  C45  1  0.94280700  0.89883400  0.62969800  1
  C  C46  1  0.74426600  0.49463200  0.56707000  1
  C  C47  1  0.62977600  0.29178500  0.40978200  1
  C  C48  1  0.97962100  0.62302800  0.74724200  1
  C  C49  1  0.70581100  0.04316700  0.92163400  1
  C  C50  1  0.79242000  0.45450000  0.11888500  1
  C  C51  1  0.85204100  0.20162700  0.54749600  1
  C  C52  1  0.94237200  0.15941500  0.77433500  1
  C  C53  1  0.91114000  0.16762800  0.09877900  1
