# generated using pymatgen
data_Cu9Ni3C2
_symmetry_space_group_name_H-M   'P 1'
_cell_length_a   7.65174000
_cell_length_b   7.67267885
_cell_length_c   7.68758046
_cell_angle_alpha   106.68910573
_cell_angle_beta   107.33989958
_cell_angle_gamma   106.53036456
_symmetry_Int_Tables_number   1
_chemical_formula_structural   Cu9Ni3C2
_chemical_formula_sum   'Cu18 Ni6 C4'
_cell_volume   377.35371110
_cell_formula_units_Z   2
loop_
 _symmetry_equiv_pos_site_id
 _symmetry_equiv_pos_as_xyz
  1  'x, y, z'
loop_
 _atom_site_type_symbol
 _atom_site_label
 _atom_site_symmetry_multiplicity
 _atom_site_fract_x
 _atom_site_fract_y
 _atom_site_fract_z
 _atom_site_occupancy
  C  C0  1  0.94058600  0.80873800  0.46984500  1
  C  C1  1  0.82061300  0.47595000  0.95646300  1
  C  C2  1  0.45665800  0.45057500  0.45810300  1
  C  C3  1  0.47546300  0.95532400  0.81960100  1
  Ni  Ni4  1  0.83828200  0.08654700  0.74761400  1
  Ni  Ni5  1  0.74404500  0.83387700  0.08596200  1
  Ni  Ni6  1  0.58598500  0.37713500  0.18582300  1
  Ni  Ni7  1  0.37587700  0.19200500  0.58224100  1
  Ni  Ni8  1  0.19507800  0.58977600  0.38960500  1
  Ni  Ni9  1  0.08295700  0.74480000  0.83345900  1
  Cu  Cu10  1  0.94659300  0.05049700  0.65346700  1
  Cu  Cu11  1  0.88979400  0.90112900  0.25755500  1
  Cu  Cu12  1  0.90893500  0.25886000  0.88986100  1
  Cu  Cu13  1  0.93702900  0.68964600  0.66145200  1
  Cu  Cu14  1  0.62255500  0.31407200  0.02813200  1
  Cu  Cu15  1  0.64893300  0.56598200  0.29763400  1
  Cu  Cu16  1  0.48136900  0.25051400  0.22989300  1
  Cu  Cu17  1  0.65137400  0.94579000  0.05598600  1
  Cu  Cu18  1  0.56414200  0.30995400  0.63531300  1
  Cu  Cu19  1  0.66555300  0.94693700  0.69727200  1
  Cu  Cu20  1  0.69207600  0.66358400  0.94386300  1
  Cu  Cu21  1  0.32213300  0.03744800  0.62066800  1
  Cu  Cu22  1  0.25216600  0.48832700  0.26861400  1
  Cu  Cu23  1  0.24506300  0.23885300  0.48212100  1
  Cu  Cu24  1  0.30231700  0.64963300  0.57778600  1
  Cu  Cu25  1  0.03657300  0.61992400  0.31595400  1
  Cu  Cu26  1  0.05394700  0.65332900  0.94546900  1
  Cu  Cu27  1  0.25241200  0.88932300  0.89870400  1
