# generated using pymatgen
data_Cu2Ni5C
_symmetry_space_group_name_H-M   'P 1'
_cell_length_a   7.49846000
_cell_length_b   7.49846000
_cell_length_c   19.96644500
_cell_angle_alpha   90.00000000
_cell_angle_beta   90.00000000
_cell_angle_gamma   90.00000000
_symmetry_Int_Tables_number   1
_chemical_formula_structural   Cu2Ni5C
_chemical_formula_sum   'Cu8 Ni20 C4'
_cell_volume   1122.65135372
_cell_formula_units_Z   4
loop_
 _symmetry_equiv_pos_site_id
 _symmetry_equiv_pos_as_xyz
  1  'x, y, z'
loop_
 _atom_site_type_symbol
 _atom_site_label
 _atom_site_symmetry_multiplicity
 _atom_site_fract_x
 _atom_site_fract_y
 _atom_site_fract_z
 _atom_site_occupancy
  C  C0  1  0.50000000  0.50000000  0.40520500  1
  C  C1  1  0.00000000  0.00000000  0.90520500  1
  C  C2  1  0.50000000  0.50000000  0.59479500  1
  C  C3  1  0.00000000  0.00000000  0.09479500  1
  Ni  Ni4  1  0.78091000  0.68360300  0.39254700  1
  Ni  Ni5  1  0.21909000  0.31639700  0.39254700  1
  Ni  Ni6  1  0.71909000  0.18360300  0.89254700  1
  Ni  Ni7  1  0.28091000  0.81639700  0.89254700  1
  Ni  Ni8  1  0.68360300  0.21909000  0.39254700  1
  Ni  Ni9  1  0.31639700  0.78091000  0.39254700  1
  Ni  Ni10  1  0.18360300  0.28091000  0.89254700  1
  Ni  Ni11  1  0.81639700  0.71909000  0.89254700  1
  Ni  Ni12  1  0.21909000  0.31639700  0.60745300  1
  Ni  Ni13  1  0.78091000  0.68360300  0.60745300  1
  Ni  Ni14  1  0.28091000  0.81639700  0.10745300  1
  Ni  Ni15  1  0.71909000  0.18360300  0.10745300  1
  Ni  Ni16  1  0.31639700  0.78091000  0.60745300  1
  Ni  Ni17  1  0.68360300  0.21909000  0.60745300  1
  Ni  Ni18  1  0.81639700  0.71909000  0.10745300  1
  Ni  Ni19  1  0.18360300  0.28091000  0.10745300  1
  Ni  Ni20  1  0.50000000  0.50000000  0.26683100  1
  Ni  Ni21  1  0.00000000  0.00000000  0.76683100  1
  Ni  Ni22  1  0.50000000  0.50000000  0.73316900  1
  Ni  Ni23  1  0.00000000  0.00000000  0.23316900  1
  Cu  Cu24  1  0.50000000  0.50000000  0.00000000  1
  Cu  Cu25  1  0.00000000  0.00000000  0.50000000  1
  Cu  Cu26  1  0.00000000  0.50000000  0.25000000  1
  Cu  Cu27  1  0.50000000  0.00000000  0.75000000  1
  Cu  Cu28  1  0.50000000  0.00000000  0.25000000  1
  Cu  Cu29  1  0.00000000  0.50000000  0.75000000  1
  Cu  Cu30  1  0.50000000  0.50000000  0.50000000  1
  Cu  Cu31  1  0.00000000  0.00000000  0.00000000  1
