# generated using pymatgen
data_Cu18Ni8C
_symmetry_space_group_name_H-M   'P 1'
_cell_length_a   6.87200000
_cell_length_b   8.36361200
_cell_length_c   15.52440534
_cell_angle_alpha   58.55532628
_cell_angle_beta   90.00000000
_cell_angle_gamma   90.00000000
_symmetry_Int_Tables_number   1
_chemical_formula_structural   Cu18Ni8C
_chemical_formula_sum   'Cu36 Ni16 C2'
_cell_volume   761.22754950
_cell_formula_units_Z   2
loop_
 _symmetry_equiv_pos_site_id
 _symmetry_equiv_pos_as_xyz
  1  'x, y, z'
loop_
 _atom_site_type_symbol
 _atom_site_label
 _atom_site_symmetry_multiplicity
 _atom_site_fract_x
 _atom_site_fract_y
 _atom_site_fract_z
 _atom_site_occupancy
  C  C0  1  0.00000000  0.00000000  0.00000000  1
  C  C1  1  0.50000000  0.00000000  0.50000000  1
  Ni  Ni2  1  0.23156100  0.37003800  0.65994200  1
  Ni  Ni3  1  0.26843900  0.37003800  0.15994200  1
  Ni  Ni4  1  0.76843900  0.62996200  0.34005800  1
  Ni  Ni5  1  0.73156100  0.62996200  0.84005800  1
  Ni  Ni6  1  0.26208200  0.77820400  0.18123200  1
  Ni  Ni7  1  0.23791800  0.77820400  0.68123200  1
  Ni  Ni8  1  0.73791800  0.22179600  0.81876800  1
  Ni  Ni9  1  0.76208200  0.22179600  0.31876800  1
  Ni  Ni10  1  0.27575700  0.89491200  0.88564600  1
  Ni  Ni11  1  0.22424300  0.89491200  0.38564600  1
  Ni  Ni12  1  0.72424300  0.10508800  0.11435400  1
  Ni  Ni13  1  0.77575700  0.10508800  0.61435400  1
  Ni  Ni14  1  0.25072600  0.33893000  0.94605000  1
  Ni  Ni15  1  0.24927400  0.33893000  0.44605000  1
  Ni  Ni16  1  0.74927400  0.66107000  0.05395000  1
  Ni  Ni17  1  0.75072600  0.66107000  0.55395000  1
  Cu  Cu18  1  0.28128600  0.95513300  0.11976000  1
  Cu  Cu19  1  0.21871400  0.95513300  0.61976000  1
  Cu  Cu20  1  0.71871400  0.04486700  0.88024000  1
  Cu  Cu21  1  0.78128600  0.04486700  0.38024000  1
  Cu  Cu22  1  0.11120000  0.70430200  0.16761600  1
  Cu  Cu23  1  0.38880000  0.70430200  0.66761600  1
  Cu  Cu24  1  0.88880000  0.29569800  0.83238400  1
  Cu  Cu25  1  0.61120000  0.29569800  0.33238400  1
  Cu  Cu26  1  0.38100400  0.68557000  0.24813700  1
  Cu  Cu27  1  0.11899600  0.68557000  0.74813700  1
  Cu  Cu28  1  0.61899600  0.31443000  0.75186300  1
  Cu  Cu29  1  0.88100400  0.31443000  0.25186300  1
  Cu  Cu30  1  0.29537200  0.82947400  0.98028100  1
  Cu  Cu31  1  0.20462800  0.82947400  0.48028100  1
  Cu  Cu32  1  0.70462800  0.17052600  0.01971900  1
  Cu  Cu33  1  0.79537200  0.17052600  0.51971900  1
  Cu  Cu34  1  0.12750300  0.00070700  0.84413800  1
  Cu  Cu35  1  0.37249700  0.00070700  0.34413800  1
  Cu  Cu36  1  0.87249700  0.99929300  0.15586200  1
  Cu  Cu37  1  0.62750300  0.99929300  0.65586200  1
  Cu  Cu38  1  0.39139200  0.86004400  0.83746400  1
  Cu  Cu39  1  0.10860800  0.86004400  0.33746400  1
  Cu  Cu40  1  0.60860800  0.13995600  0.16253600  1
  Cu  Cu41  1  0.89139200  0.13995600  0.66253600  1
  Cu  Cu42  1  0.28248100  0.23729300  0.90875600  1
  Cu  Cu43  1  0.21751900  0.23729300  0.40875600  1
  Cu  Cu44  1  0.71751900  0.76270700  0.09124400  1
  Cu  Cu45  1  0.78248100  0.76270700  0.59124400  1
  Cu  Cu46  1  0.09455400  0.30692900  0.99676000  1
  Cu  Cu47  1  0.40544600  0.30692900  0.49676000  1
  Cu  Cu48  1  0.90544600  0.69307100  0.00324000  1
  Cu  Cu49  1  0.59455400  0.69307100  0.50324000  1
  Cu  Cu50  1  0.36559900  0.46220500  0.93483200  1
  Cu  Cu51  1  0.13440100  0.46220500  0.43483200  1
  Cu  Cu52  1  0.63440100  0.53779500  0.06516800  1
  Cu  Cu53  1  0.86559900  0.53779500  0.56516800  1
