# generated using pymatgen
data_CuNiC6
_symmetry_space_group_name_H-M   'P 1'
_cell_length_a   11.03734200
_cell_length_b   5.13230200
_cell_length_c   6.23237968
_cell_angle_alpha   88.69292008
_cell_angle_beta   90.00000000
_cell_angle_gamma   90.00000000
_symmetry_Int_Tables_number   1
_chemical_formula_structural   CuNiC6
_chemical_formula_sum   'Cu4 Ni4 C24'
_cell_volume   352.95357659
_cell_formula_units_Z   4
loop_
 _symmetry_equiv_pos_site_id
 _symmetry_equiv_pos_as_xyz
  1  'x, y, z'
loop_
 _atom_site_type_symbol
 _atom_site_label
 _atom_site_symmetry_multiplicity
 _atom_site_fract_x
 _atom_site_fract_y
 _atom_site_fract_z
 _atom_site_occupancy
  C  C0  1  0.65669000  0.94211200  0.25172100  1
  C  C1  1  0.92684300  0.04815700  0.98902800  1
  C  C2  1  0.42684300  0.95184300  0.01097200  1
  C  C3  1  0.15669000  0.05788800  0.74827900  1
  C  C4  1  0.56989300  0.54630500  0.49846700  1
  C  C5  1  0.33940700  0.55831500  0.25679200  1
  C  C6  1  0.83940700  0.44168500  0.74320800  1
  C  C7  1  0.06989300  0.45369500  0.50153300  1
  Ni  Ni8  1  0.33084600  0.55105300  0.75642900  1
  Ni  Ni9  1  0.83084600  0.44894700  0.24357100  1
  Ni  Ni10  1  0.16673800  0.05134400  0.24691200  1
  Ni  Ni11  1  0.66673800  0.94865600  0.75308800  1
  Cu  Cu12  1  0.40914500  0.05607100  0.50669200  1
  Cu  Cu13  1  0.90914500  0.94392900  0.49330800  1
  Cu  Cu14  1  0.08738800  0.55729400  0.99709000  1
  Cu  Cu15  1  0.58738800  0.44270600  0.00291000  1
  C  C16  1  0.58417200  0.11996700  0.00475900  1
  C  C17  1  0.83282300  0.04045100  0.27657600  1
  C  C18  1  0.84055100  0.04540100  0.71320000  1
  C  C19  1  0.54784500  0.93823100  0.50636900  1
  C  C20  1  0.04784500  0.06176900  0.49363100  1
  C  C21  1  0.34055100  0.95459900  0.28680000  1
  C  C22  1  0.33282300  0.95954900  0.72342400  1
  C  C23  1  0.08417200  0.88003300  0.99524100  1
  C  C24  1  0.91225500  0.62136100  0.49692000  1
  C  C25  1  0.66412400  0.53909000  0.78558300  1
  C  C26  1  0.44870900  0.56013700  0.00276100  1
  C  C27  1  0.15577900  0.45570600  0.77712500  1
  C  C28  1  0.65577900  0.54429400  0.22287500  1
  C  C29  1  0.94870900  0.43986300  0.99723900  1
  C  C30  1  0.16412400  0.46091000  0.21441700  1
  C  C31  1  0.41225500  0.37863900  0.50308000  1
