# generated using pymatgen
data_Cu3Ni9C7
_symmetry_space_group_name_H-M   'P 1'
_cell_length_a   8.78796491
_cell_length_b   8.78796491
_cell_length_c   7.00017200
_cell_angle_alpha   90.00000000
_cell_angle_beta   90.00000000
_cell_angle_gamma   107.22568125
_symmetry_Int_Tables_number   1
_chemical_formula_structural   Cu3Ni9C7
_chemical_formula_sum   'Cu6 Ni18 C14'
_cell_volume   516.36283329
_cell_formula_units_Z   2
loop_
 _symmetry_equiv_pos_site_id
 _symmetry_equiv_pos_as_xyz
  1  'x, y, z'
loop_
 _atom_site_type_symbol
 _atom_site_label
 _atom_site_symmetry_multiplicity
 _atom_site_fract_x
 _atom_site_fract_y
 _atom_site_fract_z
 _atom_site_occupancy
  C  C0  1  0.45752500  0.96972600  0.27808000  1
  C  C1  1  0.96972600  0.45752500  0.77808000  1
  C  C2  1  0.59397000  0.40603000  0.89325400  1
  C  C3  1  0.40603000  0.59397000  0.39325400  1
  C  C4  1  0.03027400  0.54247500  0.27808000  1
  C  C5  1  0.54247500  0.03027400  0.77808000  1
  C  C6  1  0.86786600  0.13213400  0.14268400  1
  C  C7  1  0.13213400  0.86786600  0.64268400  1
  C  C8  1  0.22026200  0.31818300  0.24599800  1
  C  C9  1  0.31818300  0.22026200  0.74599800  1
  C  C10  1  0.29542800  0.70457200  0.02511100  1
  C  C11  1  0.70457200  0.29542800  0.52511100  1
  C  C12  1  0.68181700  0.77973800  0.24599800  1
  C  C13  1  0.77973800  0.68181700  0.74599800  1
  Ni  Ni14  1  0.16345600  0.20167300  0.13397300  1
  Ni  Ni15  1  0.20167300  0.16345600  0.63397300  1
  Ni  Ni16  1  0.12742700  0.37391500  0.34413200  1
  Ni  Ni17  1  0.37391500  0.12742700  0.84413200  1
  Ni  Ni18  1  0.37909400  0.36871900  0.76043500  1
  Ni  Ni19  1  0.36871900  0.37909400  0.26043500  1
  Ni  Ni20  1  0.19387300  0.59531500  0.93976700  1
  Ni  Ni21  1  0.59531500  0.19387300  0.43976700  1
  Ni  Ni22  1  0.71487800  0.28512200  0.70940100  1
  Ni  Ni23  1  0.28512200  0.71487800  0.20940100  1
  Ni  Ni24  1  0.80612700  0.40468500  0.43976700  1
  Ni  Ni25  1  0.40468500  0.80612700  0.93976700  1
  Ni  Ni26  1  0.62090600  0.63128100  0.26043500  1
  Ni  Ni27  1  0.63128100  0.62090600  0.76043500  1
  Ni  Ni28  1  0.87257300  0.62608500  0.84413200  1
  Ni  Ni29  1  0.62608500  0.87257300  0.34413200  1
  Ni  Ni30  1  0.79832700  0.83654400  0.13397300  1
  Ni  Ni31  1  0.83654400  0.79832700  0.63397300  1
  Cu  Cu32  1  0.09320800  0.63850500  0.54062900  1
  Cu  Cu33  1  0.63850500  0.09320800  0.04062900  1
  Cu  Cu34  1  0.91689300  0.08310700  0.88320400  1
  Cu  Cu35  1  0.08310700  0.91689300  0.38320400  1
  Cu  Cu36  1  0.90679200  0.36149500  0.04062900  1
  Cu  Cu37  1  0.36149500  0.90679200  0.54062900  1
