# generated using pymatgen
data_Cu14Ni5C8
_symmetry_space_group_name_H-M   'P 1'
_cell_length_a   10.78119005
_cell_length_b   10.78119005
_cell_length_c   15.01068903
_cell_angle_alpha   76.08862203
_cell_angle_beta   76.08862203
_cell_angle_gamma   32.22573297
_symmetry_Int_Tables_number   1
_chemical_formula_structural   Cu14Ni5C8
_chemical_formula_sum   'Cu28 Ni10 C16'
_cell_volume   900.79610431
_cell_formula_units_Z   2
loop_
 _symmetry_equiv_pos_site_id
 _symmetry_equiv_pos_as_xyz
  1  'x, y, z'
loop_
 _atom_site_type_symbol
 _atom_site_label
 _atom_site_symmetry_multiplicity
 _atom_site_fract_x
 _atom_site_fract_y
 _atom_site_fract_z
 _atom_site_occupancy
  C  C0  1  0.50000000  0.50000000  0.50000000  1
  C  C1  1  0.50000000  0.50000000  0.00000000  1
  C  C2  1  0.72221100  0.72221100  0.88596100  1
  C  C3  1  0.27778900  0.27778900  0.11403900  1
  C  C4  1  0.92393900  0.92393900  0.69748500  1
  C  C5  1  0.07606100  0.07606100  0.30251500  1
  C  C6  1  0.08480500  0.08480500  0.78447900  1
  C  C7  1  0.91519500  0.91519500  0.21552100  1
  C  C8  1  0.29294200  0.29294200  0.62884000  1
  C  C9  1  0.70705800  0.70705800  0.37116000  1
  C  C10  1  0.61378400  0.61378400  0.64324000  1
  C  C11  1  0.38621600  0.38621600  0.35676000  1
  C  C12  1  0.09421400  0.09421400  0.07414500  1
  C  C13  1  0.90578600  0.90578600  0.92585500  1
  C  C14  1  0.16852200  0.16852200  0.53453600  1
  C  C15  1  0.83147800  0.83147800  0.46546400  1
  Ni  Ni16  1  0.34080100  0.34080100  0.84310200  1
  Ni  Ni17  1  0.65919900  0.65919900  0.15689800  1
  Ni  Ni18  1  0.45474100  0.45474100  0.78801400  1
  Ni  Ni19  1  0.54525900  0.54525900  0.21198600  1
  Ni  Ni20  1  0.67826300  0.67826300  0.65125900  1
  Ni  Ni21  1  0.32173700  0.32173700  0.34874100  1
  Ni  Ni22  1  0.12977100  0.12977100  0.98466900  1
  Ni  Ni23  1  0.87022900  0.87022900  0.01533100  1
  Ni  Ni24  1  0.10708300  0.10708300  0.51742600  1
  Ni  Ni25  1  0.89291700  0.89291700  0.48257400  1
  Cu  Cu26  1  0.11795000  0.53299400  0.79527700  1
  Cu  Cu27  1  0.53299400  0.11795000  0.79527700  1
  Cu  Cu28  1  0.88205000  0.46700600  0.20472300  1
  Cu  Cu29  1  0.46700600  0.88205000  0.20472300  1
  Cu  Cu30  1  0.27318900  0.68647800  0.82344300  1
  Cu  Cu31  1  0.68647800  0.27318900  0.82344300  1
  Cu  Cu32  1  0.72681100  0.31352200  0.17655700  1
  Cu  Cu33  1  0.31352200  0.72681100  0.17655700  1
  Cu  Cu34  1  0.46640800  0.46640800  0.68635300  1
  Cu  Cu35  1  0.53359200  0.53359200  0.31364700  1
  Cu  Cu36  1  0.88911600  0.47838100  0.70317800  1
  Cu  Cu37  1  0.47838100  0.88911600  0.70317800  1
  Cu  Cu38  1  0.11088400  0.52161900  0.29682200  1
  Cu  Cu39  1  0.52161900  0.11088400  0.29682200  1
  Cu  Cu40  1  0.72111100  0.72111100  0.55778000  1
  Cu  Cu41  1  0.27888900  0.27888900  0.44222000  1
  Cu  Cu42  1  0.90384400  0.31393300  0.94474800  1
  Cu  Cu43  1  0.31393300  0.90384400  0.94474800  1
  Cu  Cu44  1  0.09615600  0.68606700  0.05525200  1
  Cu  Cu45  1  0.68606700  0.09615600  0.05525200  1
  Cu  Cu46  1  0.20064600  0.20064600  0.98402100  1
  Cu  Cu47  1  0.79935400  0.79935400  0.01597900  1
  Cu  Cu48  1  0.90084900  0.30866800  0.46315900  1
  Cu  Cu49  1  0.30866800  0.90084900  0.46315900  1
  Cu  Cu50  1  0.09915100  0.69133200  0.53684100  1
  Cu  Cu51  1  0.69133200  0.09915100  0.53684100  1
  Cu  Cu52  1  0.05869500  0.05869500  0.60733400  1
  Cu  Cu53  1  0.94130500  0.94130500  0.39266600  1
