# generated using pymatgen
data_CuNiC10
_symmetry_space_group_name_H-M   'P 1'
_cell_length_a   8.37318582
_cell_length_b   8.37318582
_cell_length_c   8.37318571
_cell_angle_alpha   62.07735818
_cell_angle_beta   62.07735818
_cell_angle_gamma   62.07736290
_symmetry_Int_Tables_number   1
_chemical_formula_structural   CuNiC10
_chemical_formula_sum   'Cu3 Ni3 C30'
_cell_volume   434.38143203
_cell_formula_units_Z   3
loop_
 _symmetry_equiv_pos_site_id
 _symmetry_equiv_pos_as_xyz
  1  'x, y, z'
loop_
 _atom_site_type_symbol
 _atom_site_label
 _atom_site_symmetry_multiplicity
 _atom_site_fract_x
 _atom_site_fract_y
 _atom_site_fract_z
 _atom_site_occupancy
  Ni  Ni0  1  0.35482700  0.35482700  0.35482700  1
  Ni  Ni1  1  0.14484500  0.14484500  0.14484500  1
  Ni  Ni2  1  0.64519600  0.64519600  0.64519600  1
  Cu  Cu3  1  0.99839900  0.99839900  0.99839900  1
  Cu  Cu4  1  0.85364000  0.85364000  0.85364000  1
  Cu  Cu5  1  0.50033800  0.50033800  0.50033800  1
  C  C6  1  0.45310700  0.75046100  0.04724800  1
  C  C7  1  0.75046100  0.04724800  0.45310700  1
  C  C8  1  0.04724800  0.45310700  0.75046100  1
  C  C9  1  0.95218600  0.54843100  0.24890200  1
  C  C10  1  0.24890200  0.95218600  0.54843100  1
  C  C11  1  0.54843100  0.24890200  0.95218600  1
  C  C12  1  0.67544100  0.89275500  0.49632600  1
  C  C13  1  0.89275500  0.49632600  0.67544100  1
  C  C14  1  0.49632600  0.67544100  0.89275500  1
  C  C15  1  0.25035800  0.90390400  0.06197100  1
  C  C16  1  0.60918900  0.82470800  0.00407400  1
  C  C17  1  0.43973900  0.59598300  0.24977900  1
  C  C18  1  0.90390400  0.06197100  0.25035800  1
  C  C19  1  0.59598300  0.24977900  0.43973900  1
  C  C20  1  0.99557000  0.39296800  0.17524000  1
  C  C21  1  0.24977900  0.43973900  0.59598300  1
  C  C22  1  0.93695400  0.75080900  0.09433500  1
  C  C23  1  0.17524000  0.99557000  0.39296800  1
  C  C24  1  0.82470800  0.00407400  0.60918900  1
  C  C25  1  0.06197100  0.25035800  0.90390400  1
  C  C26  1  0.74935700  0.56374200  0.40325200  1
  C  C27  1  0.00407400  0.60918900  0.82470800  1
  C  C28  1  0.40325200  0.74935700  0.56374200  1
  C  C29  1  0.09433500  0.93695400  0.75080800  1
  C  C30  1  0.56374200  0.40325200  0.74935700  1
  C  C31  1  0.39296800  0.17524000  0.99557000  1
  C  C32  1  0.75080800  0.09433500  0.93695400  1
  C  C33  1  0.50603000  0.32214600  0.10781500  1
  C  C34  1  0.10781500  0.50603000  0.32214600  1
  C  C35  1  0.32214600  0.10781500  0.50603000  1
