# generated using pymatgen
data_Cu3NiC37
_symmetry_space_group_name_H-M   'P 1'
_cell_length_a   8.74238444
_cell_length_b   8.74238444
_cell_length_c   8.74238440
_cell_angle_alpha   60.18565190
_cell_angle_beta   60.18565190
_cell_angle_gamma   60.18565796
_symmetry_Int_Tables_number   1
_chemical_formula_structural   Cu3NiC37
_chemical_formula_sum   'Cu3 Ni1 C37'
_cell_volume   474.45690450
_cell_formula_units_Z   1
loop_
 _symmetry_equiv_pos_site_id
 _symmetry_equiv_pos_as_xyz
  1  'x, y, z'
loop_
 _atom_site_type_symbol
 _atom_site_label
 _atom_site_symmetry_multiplicity
 _atom_site_fract_x
 _atom_site_fract_y
 _atom_site_fract_z
 _atom_site_occupancy
  C  C0  1  0.72227800  0.32746200  0.14904700  1
  C  C1  1  0.14904700  0.72227800  0.32746200  1
  C  C2  1  0.32746200  0.14904700  0.72227800  1
  C  C3  1  0.48425400  0.48425400  0.48425400  1
  C  C4  1  0.72066700  0.88951200  0.23524400  1
  C  C5  1  0.88951200  0.23524400  0.72066700  1
  C  C6  1  0.23524400  0.72066700  0.88951200  1
  Ni  Ni7  1  0.85389900  0.85389900  0.85389900  1
  Cu  Cu8  1  0.35050300  0.35050300  0.35050300  1
  Cu  Cu9  1  0.14453400  0.14453400  0.14453400  1
  Cu  Cu10  1  0.64207700  0.64207700  0.64207700  1
  C  C11  1  0.46879800  0.74035400  0.04252100  1
  C  C12  1  0.74035400  0.04252100  0.46879800  1
  C  C13  1  0.04252100  0.46879800  0.74035400  1
  C  C14  1  0.95814000  0.54610000  0.23908100  1
  C  C15  1  0.23908100  0.95814000  0.54610000  1
  C  C16  1  0.54610000  0.23908100  0.95814000  1
  C  C17  1  0.27838800  0.89575000  0.08493200  1
  C  C18  1  0.46886500  0.56250800  0.22056300  1
  C  C19  1  0.63948300  0.78016400  0.00633100  1
  C  C20  1  0.70965400  0.87893600  0.47872200  1
  C  C21  1  0.89575000  0.08493200  0.27838800  1
  C  C22  1  0.56250800  0.22056300  0.46886500  1
  C  C23  1  0.87893600  0.47872200  0.70965400  1
  C  C24  1  0.22056300  0.46886500  0.56250800  1
  C  C25  1  0.98112400  0.37669800  0.21241400  1
  C  C26  1  0.96168200  0.72557000  0.05468600  1
  C  C27  1  0.47872200  0.70965400  0.87893600  1
  C  C28  1  0.21241400  0.98112400  0.37669800  1
  C  C29  1  0.78016400  0.00633100  0.63948300  1
  C  C30  1  0.53131400  0.27746800  0.12037400  1
  C  C31  1  0.08493200  0.27838800  0.89575000  1
  C  C32  1  0.00633100  0.63948300  0.78016400  1
  C  C33  1  0.76367800  0.60202300  0.38491700  1
  C  C34  1  0.12037400  0.53131400  0.27746800  1
  C  C35  1  0.38491700  0.76367800  0.60202300  1
  C  C36  1  0.05468600  0.96168200  0.72557000  1
  C  C37  1  0.27746800  0.12037400  0.53131400  1
  C  C38  1  0.37669800  0.21241400  0.98112400  1
  C  C39  1  0.60202300  0.38491700  0.76367800  1
  C  C40  1  0.72557000  0.05468600  0.96168200  1
