# generated using pymatgen
data_CuNiC13
_symmetry_space_group_name_H-M   'P 1'
_cell_length_a   11.04392600
_cell_length_b   12.47925600
_cell_length_c   15.93362200
_cell_angle_alpha   90.00000000
_cell_angle_beta   90.00000000
_cell_angle_gamma   90.00000000
_symmetry_Int_Tables_number   1
_chemical_formula_structural   CuNiC13
_chemical_formula_sum   'Cu8 Ni8 C104'
_cell_volume   2195.97146217
_cell_formula_units_Z   8
loop_
 _symmetry_equiv_pos_site_id
 _symmetry_equiv_pos_as_xyz
  1  'x, y, z'
loop_
 _atom_site_type_symbol
 _atom_site_label
 _atom_site_symmetry_multiplicity
 _atom_site_fract_x
 _atom_site_fract_y
 _atom_site_fract_z
 _atom_site_occupancy
  C  C0  1  0.94618400  0.35906000  0.88838300  1
  C  C1  1  0.55381600  0.85906000  0.11161700  1
  C  C2  1  0.44618400  0.64094000  0.61161700  1
  C  C3  1  0.05381600  0.14094000  0.38838300  1
  C  C4  1  0.05381600  0.64094000  0.11161700  1
  C  C5  1  0.44618400  0.14094000  0.88838300  1
  C  C6  1  0.55381600  0.35906000  0.38838300  1
  C  C7  1  0.94618400  0.85906000  0.61161700  1
  C  C8  1  0.96673600  0.83486200  0.88458400  1
  C  C9  1  0.53326400  0.33486200  0.11541600  1
  C  C10  1  0.46673600  0.16513800  0.61541600  1
  C  C11  1  0.03326400  0.66513800  0.38458400  1
  C  C12  1  0.03326400  0.16513800  0.11541600  1
  C  C13  1  0.46673600  0.66513800  0.88458400  1
  C  C14  1  0.53326400  0.83486200  0.38458400  1
  C  C15  1  0.96673600  0.33486200  0.61541600  1
  C  C16  1  0.15736000  0.56936300  0.75434100  1
  C  C17  1  0.34264000  0.06936300  0.24565900  1
  C  C18  1  0.65736000  0.43063700  0.74565900  1
  C  C19  1  0.84264000  0.93063700  0.25434100  1
  C  C20  1  0.84264000  0.43063700  0.24565900  1
  C  C21  1  0.65736000  0.93063700  0.75434100  1
  C  C22  1  0.34264000  0.56936300  0.25434100  1
  C  C23  1  0.15736000  0.06936300  0.74565900  1
  C  C24  1  0.37333400  0.39905300  0.76028000  1
  C  C25  1  0.12666600  0.89905300  0.23972000  1
  C  C26  1  0.87333400  0.60094700  0.73972000  1
  C  C27  1  0.62666600  0.10094700  0.26028000  1
  C  C28  1  0.62666600  0.60094700  0.23972000  1
  C  C29  1  0.87333400  0.10094700  0.76028000  1
  C  C30  1  0.12666600  0.39905300  0.26028000  1
  C  C31  1  0.37333400  0.89905300  0.73972000  1
  C  C32  1  0.25376000  0.82838800  0.74124000  1
  C  C33  1  0.24624000  0.32838800  0.25876000  1
  C  C34  1  0.75376000  0.17161200  0.75876000  1
  C  C35  1  0.74624000  0.67161200  0.24124000  1
  C  C36  1  0.74624000  0.17161200  0.25876000  1
  C  C37  1  0.75376000  0.67161200  0.74124000  1
  C  C38  1  0.24624000  0.82838800  0.24124000  1
  C  C39  1  0.25376000  0.32838800  0.75876000  1
  Ni  Ni40  1  0.24511800  0.32161900  0.00210500  1
  Ni  Ni41  1  0.25488200  0.82161900  0.99789500  1
  Ni  Ni42  1  0.74511800  0.67838100  0.49789500  1
  Ni  Ni43  1  0.75488200  0.17838100  0.50210500  1
  Ni  Ni44  1  0.75488200  0.67838100  0.99789500  1
  Ni  Ni45  1  0.74511800  0.17838100  0.00210500  1
  Ni  Ni46  1  0.25488200  0.32161900  0.50210500  1
  Ni  Ni47  1  0.24511800  0.82161900  0.49789500  1
  Cu  Cu48  1  0.14299000  0.58230100  0.91027500  1
  Cu  Cu49  1  0.35701000  0.08230100  0.08972500  1
  Cu  Cu50  1  0.64299000  0.41769900  0.58972500  1
  Cu  Cu51  1  0.85701000  0.91769900  0.41027500  1
  Cu  Cu52  1  0.85701000  0.41769900  0.08972500  1
  Cu  Cu53  1  0.64299000  0.91769900  0.91027500  1
  Cu  Cu54  1  0.35701000  0.58230100  0.41027500  1
  Cu  Cu55  1  0.14299000  0.08230100  0.58972500  1
  C  C56  1  0.97082300  0.65474700  0.73720600  1
  C  C57  1  0.52917700  0.15474700  0.26279400  1
  C  C58  1  0.47082300  0.34525300  0.76279400  1
  C  C59  1  0.02917700  0.84525300  0.23720600  1
  C  C60  1  0.02917700  0.34525300  0.26279400  1
  C  C61  1  0.47082300  0.84525300  0.73720600  1
  C  C62  1  0.52917700  0.65474700  0.23720600  1
  C  C63  1  0.97082300  0.15474700  0.76279400  1
  C  C64  1  0.27250900  0.72836900  0.74109800  1
  C  C65  1  0.22749100  0.22836900  0.25890200  1
  C  C66  1  0.77250900  0.27163100  0.75890200  1
  C  C67  1  0.72749100  0.77163100  0.24109800  1
  C  C68  1  0.72749100  0.27163100  0.25890200  1
  C  C69  1  0.77250900  0.77163100  0.74109800  1
  C  C70  1  0.22749100  0.72836900  0.24109800  1
  C  C71  1  0.27250900  0.22836900  0.75890200  1
  C  C72  1  0.15327700  0.37598900  0.75707800  1
  C  C73  1  0.34672300  0.87598900  0.24292200  1
  C  C74  1  0.65327700  0.62401100  0.74292200  1
  C  C75  1  0.84672300  0.12401100  0.25707800  1
  C  C76  1  0.84672300  0.62401100  0.24292200  1
  C  C77  1  0.65327700  0.12401100  0.75707800  1
  C  C78  1  0.34672300  0.37598900  0.25707800  1
  C  C79  1  0.15327700  0.87598900  0.74292200  1
  C  C80  1  0.36377000  0.49946900  0.75787800  1
  C  C81  1  0.13623000  0.99946900  0.24212200  1
  C  C82  1  0.86377000  0.50053100  0.74212200  1
  C  C83  1  0.63623000  0.00053100  0.25787800  1
  C  C84  1  0.63623000  0.50053100  0.24212200  1
  C  C85  1  0.86377000  0.00053100  0.75787800  1
  C  C86  1  0.13623000  0.49946900  0.25787800  1
  C  C87  1  0.36377000  0.99946900  0.74212200  1
  C  C88  1  0.15351300  0.54436600  0.61817500  1
  C  C89  1  0.34648700  0.04436600  0.38182500  1
  C  C90  1  0.65351300  0.45563400  0.88182500  1
  C  C91  1  0.84648700  0.95563400  0.11817500  1
  C  C92  1  0.84648700  0.45563400  0.38182500  1
  C  C93  1  0.65351300  0.95563400  0.61817500  1
  C  C94  1  0.34648700  0.54436600  0.11817500  1
  C  C95  1  0.15351300  0.04436600  0.88182500  1
  C  C96  1  0.21412000  0.36343600  0.07101300  1
  C  C97  1  0.28588000  0.86343600  0.92898700  1
  C  C98  1  0.71412000  0.63656400  0.42898700  1
  C  C99  1  0.78588000  0.13656400  0.57101300  1
  C  C100  1  0.78588000  0.63656400  0.92898700  1
  C  C101  1  0.71412000  0.13656400  0.07101300  1
  C  C102  1  0.28588000  0.36343600  0.57101300  1
  C  C103  1  0.21412000  0.86343600  0.42898700  1
  C  C104  1  0.34906100  0.33758000  0.97211200  1
  C  C105  1  0.15093900  0.83758000  0.02788800  1
  C  C106  1  0.84906100  0.66242000  0.52788800  1
  C  C107  1  0.65093900  0.16242000  0.47211200  1
  C  C108  1  0.65093900  0.66242000  0.02788800  1
  C  C109  1  0.84906100  0.16242000  0.97211200  1
  C  C110  1  0.15093900  0.33758000  0.47211200  1
  C  C111  1  0.34906100  0.83758000  0.52788800  1
  C  C112  1  0.17033600  0.26176800  0.96358900  1
  C  C113  1  0.32966400  0.76176800  0.03641100  1
  C  C114  1  0.67033600  0.73823200  0.53641100  1
  C  C115  1  0.82966400  0.23823200  0.46358900  1
  C  C116  1  0.82966400  0.73823200  0.03641100  1
  C  C117  1  0.67033600  0.23823200  0.96358900  1
  C  C118  1  0.32966400  0.26176800  0.46358900  1
  C  C119  1  0.17033600  0.76176800  0.53641100  1
