# generated using pymatgen
data_Cu4NiC12
_symmetry_space_group_name_H-M   'P 1'
_cell_length_a   7.73112000
_cell_length_b   11.06458900
_cell_length_c   11.18262809
_cell_angle_alpha   69.17684213
_cell_angle_beta   90.00000000
_cell_angle_gamma   90.00000000
_symmetry_Int_Tables_number   1
_chemical_formula_structural   Cu4NiC12
_chemical_formula_sum   'Cu16 Ni4 C48'
_cell_volume   894.09876523
_cell_formula_units_Z   4
loop_
 _symmetry_equiv_pos_site_id
 _symmetry_equiv_pos_as_xyz
  1  'x, y, z'
loop_
 _atom_site_type_symbol
 _atom_site_label
 _atom_site_symmetry_multiplicity
 _atom_site_fract_x
 _atom_site_fract_y
 _atom_site_fract_z
 _atom_site_occupancy
  C  C0  1  0.75000000  0.90854300  0.39536000  1
  C  C1  1  0.75000000  0.97558400  0.10810000  1
  C  C2  1  0.75000000  0.64045600  0.86702000  1
  C  C3  1  0.75000000  0.62147700  0.44650300  1
  C  C4  1  0.25000000  0.37852300  0.55349700  1
  C  C5  1  0.25000000  0.35954400  0.13298000  1
  C  C6  1  0.25000000  0.02441600  0.89190000  1
  C  C7  1  0.25000000  0.09145700  0.60464000  1
  Ni  Ni8  1  0.97679500  0.78977500  0.27713700  1
  Ni  Ni9  1  0.52320500  0.78977500  0.27713700  1
  Ni  Ni10  1  0.47679500  0.21022500  0.72286300  1
  Ni  Ni11  1  0.02320500  0.21022500  0.72286300  1
  Cu  Cu12  1  0.95195600  0.90944200  0.74293600  1
  Cu  Cu13  1  0.54804400  0.90944200  0.74293600  1
  Cu  Cu14  1  0.04574700  0.73918000  0.58661000  1
  Cu  Cu15  1  0.45425300  0.73918000  0.58661000  1
  Cu  Cu16  1  0.44943000  0.75819000  0.01234400  1
  Cu  Cu17  1  0.05057000  0.75819000  0.01234400  1
  Cu  Cu18  1  0.44551800  0.47084500  0.77518300  1
  Cu  Cu19  1  0.05448200  0.47084500  0.77518300  1
  Cu  Cu20  1  0.94551800  0.52915500  0.22481700  1
  Cu  Cu21  1  0.55448200  0.52915500  0.22481700  1
  Cu  Cu22  1  0.94943000  0.24181000  0.98765600  1
  Cu  Cu23  1  0.55057000  0.24181000  0.98765600  1
  Cu  Cu24  1  0.95425300  0.26082000  0.41339000  1
  Cu  Cu25  1  0.54574700  0.26082000  0.41339000  1
  Cu  Cu26  1  0.45195600  0.09055800  0.25706400  1
  Cu  Cu27  1  0.04804400  0.09055800  0.25706400  1
  C  C28  1  0.75000000  0.95174200  0.70623900  1
  C  C29  1  0.94524100  0.77763500  0.87651400  1
  C  C30  1  0.55475900  0.77763500  0.87651400  1
  C  C31  1  0.25000000  0.81042600  0.96980300  1
  C  C32  1  0.46583000  0.86704600  0.62843000  1
  C  C33  1  0.03417000  0.86704600  0.62843000  1
  C  C34  1  0.93232700  0.97641000  0.24338800  1
  C  C35  1  0.56767300  0.97641000  0.24338800  1
  C  C36  1  0.25000000  0.71104700  0.56422800  1
  C  C37  1  0.93003100  0.75892500  0.46215400  1
  C  C38  1  0.56996900  0.75892500  0.46215400  1
  C  C39  1  0.96056300  0.83596600  0.09190800  1
  C  C40  1  0.53943700  0.83596600  0.09190800  1
  C  C41  1  0.53085900  0.61730700  0.71206900  1
  C  C42  1  0.96914100  0.61730700  0.71206900  1
  C  C43  1  0.25000000  0.48555500  0.82694900  1
  C  C44  1  0.94105700  0.39947700  0.90721700  1
  C  C45  1  0.55894300  0.39947700  0.90721700  1
  C  C46  1  0.94929100  0.60312200  0.32520900  1
  C  C47  1  0.55070900  0.60312200  0.32520900  1
  C  C48  1  0.44929100  0.39687800  0.67479100  1
  C  C49  1  0.05070900  0.39687800  0.67479100  1
  C  C50  1  0.44105700  0.60052300  0.09278300  1
  C  C51  1  0.05894300  0.60052300  0.09278300  1
  C  C52  1  0.75000000  0.51444500  0.17305100  1
  C  C53  1  0.46914100  0.38269300  0.28793100  1
  C  C54  1  0.03085900  0.38269300  0.28793100  1
  C  C55  1  0.03943700  0.16403400  0.90809200  1
  C  C56  1  0.46056300  0.16403400  0.90809200  1
  C  C57  1  0.43003100  0.24107500  0.53784600  1
  C  C58  1  0.06996900  0.24107500  0.53784600  1
  C  C59  1  0.75000000  0.28895300  0.43577200  1
  C  C60  1  0.43232700  0.02359000  0.75661200  1
  C  C61  1  0.06767300  0.02359000  0.75661200  1
  C  C62  1  0.96583000  0.13295400  0.37157000  1
  C  C63  1  0.53417000  0.13295400  0.37157000  1
  C  C64  1  0.75000000  0.18957400  0.03019700  1
  C  C65  1  0.44524100  0.22236500  0.12348600  1
  C  C66  1  0.05475900  0.22236500  0.12348600  1
  C  C67  1  0.25000000  0.04825800  0.29376100  1
