# generated using pymatgen
data_Cu6NiC53
_symmetry_space_group_name_H-M   'P 1'
_cell_length_a   10.40249323
_cell_length_b   10.40249323
_cell_length_c   20.30942939
_cell_angle_alpha   72.23153287
_cell_angle_beta   72.23153287
_cell_angle_gamma   61.29342386
_symmetry_Int_Tables_number   1
_chemical_formula_structural   Cu6NiC53
_chemical_formula_sum   'Cu12 Ni2 C106'
_cell_volume   1802.25791485
_cell_formula_units_Z   2
loop_
 _symmetry_equiv_pos_site_id
 _symmetry_equiv_pos_as_xyz
  1  'x, y, z'
loop_
 _atom_site_type_symbol
 _atom_site_label
 _atom_site_symmetry_multiplicity
 _atom_site_fract_x
 _atom_site_fract_y
 _atom_site_fract_z
 _atom_site_occupancy
  Ni  Ni0  1  0.00000000  0.50000000  0.50000000  1
  Ni  Ni1  1  0.50000000  0.00000000  0.00000000  1
  Cu  Cu2  1  0.86506500  0.22341400  0.60325500  1
  Cu  Cu3  1  0.77658600  0.13493500  0.89674500  1
  Cu  Cu4  1  0.13493500  0.77658600  0.39674500  1
  Cu  Cu5  1  0.22341400  0.86506500  0.10325500  1
  Cu  Cu6  1  0.87513300  0.68248500  0.65022200  1
  Cu  Cu7  1  0.31751500  0.12486700  0.84977800  1
  Cu  Cu8  1  0.12486700  0.31751500  0.34977800  1
  Cu  Cu9  1  0.68248500  0.87513300  0.15022200  1
  Cu  Cu10  1  0.35244100  0.25592700  0.56093400  1
  Cu  Cu11  1  0.74407300  0.64755900  0.93906600  1
  Cu  Cu12  1  0.64755900  0.74407300  0.43906600  1
  Cu  Cu13  1  0.25592700  0.35244100  0.06093400  1
  C  C14  1  0.89983300  0.21358000  0.17502300  1
  C  C15  1  0.78642000  0.10016700  0.32497700  1
  C  C16  1  0.10016700  0.78642000  0.82497700  1
  C  C17  1  0.21358000  0.89983300  0.67502300  1
  C  C18  1  0.84542600  0.39930700  0.18616100  1
  C  C19  1  0.60069300  0.15457400  0.31383900  1
  C  C20  1  0.15457400  0.60069300  0.81383900  1
  C  C21  1  0.39930700  0.84542600  0.68616100  1
  C  C22  1  0.92562600  0.24176100  0.25219400  1
  C  C23  1  0.75823900  0.07437400  0.24780600  1
  C  C24  1  0.07437400  0.75823900  0.74780600  1
  C  C25  1  0.24176100  0.92562600  0.75219400  1
  C  C26  1  0.52580400  0.40594000  0.32955900  1
  C  C27  1  0.59406000  0.47419600  0.17044100  1
  C  C28  1  0.47419600  0.59406000  0.67044100  1
  C  C29  1  0.40594000  0.52580400  0.82955900  1
  C  C30  1  0.71090600  0.35215500  0.34108300  1
  C  C31  1  0.64784500  0.28909400  0.15891700  1
  C  C32  1  0.28909400  0.64784500  0.65891700  1
  C  C33  1  0.35215500  0.71090600  0.84108300  1
  C  C34  1  0.62997100  0.50975300  0.27542000  1
  C  C35  1  0.49024700  0.37002900  0.22458000  1
  C  C36  1  0.37002900  0.49024700  0.72458000  1
  C  C37  1  0.50975300  0.62997100  0.77542000  1
  C  C38  1  0.85409900  0.28763100  0.21303900  1
  C  C39  1  0.71236900  0.14590100  0.28696100  1
  C  C40  1  0.14590100  0.71236900  0.78696100  1
  C  C41  1  0.28763100  0.85409900  0.71303900  1
  C  C42  1  0.63723100  0.39868700  0.30297600  1
  C  C43  1  0.60131300  0.36276900  0.19702400  1
  C  C44  1  0.36276900  0.60131300  0.69702400  1
  C  C45  1  0.39868700  0.63723100  0.80297600  1
  C  C46  1  0.70114800  0.29885200  0.25000000  1
  C  C47  1  0.29885200  0.70114800  0.75000000  1
  C  C48  1  0.99706800  0.30107400  0.53887000  1
  C  C49  1  0.69892600  0.00293200  0.96113000  1
  C  C50  1  0.00293200  0.69892600  0.46113000  1
  C  C51  1  0.30107400  0.99706800  0.03887000  1
  C  C52  1  0.92602100  0.53810800  0.59827000  1
  C  C53  1  0.46189200  0.07397900  0.90173000  1
  C  C54  1  0.07397900  0.46189200  0.40173000  1
  C  C55  1  0.53810800  0.92602100  0.09827000  1
  C  C56  1  0.21041500  0.41679900  0.51072400  1
  C  C57  1  0.58320100  0.78958500  0.98927600  1
  C  C58  1  0.78958500  0.58320100  0.48927600  1
  C  C59  1  0.41679900  0.21041500  0.01072400  1
  C  C60  1  0.77308400  0.24645700  0.53161500  1
  C  C61  1  0.75354300  0.22691600  0.96838500  1
  C  C62  1  0.22691600  0.75354300  0.46838500  1
  C  C63  1  0.24645700  0.77308400  0.03161500  1
  C  C64  1  0.71002700  0.40584100  0.62537600  1
  C  C65  1  0.59415900  0.28997300  0.87462400  1
  C  C66  1  0.28997300  0.59415900  0.37462400  1
  C  C67  1  0.40584100  0.71002700  0.12537600  1
  C  C68  1  0.94330600  0.20053300  0.68028000  1
  C  C69  1  0.79946700  0.05669400  0.81972000  1
  C  C70  1  0.05669400  0.79946700  0.31972000  1
  C  C71  1  0.20053300  0.94330600  0.18028000  1
  C  C72  1  0.01263100  0.03378000  0.58704000  1
  C  C73  1  0.96622000  0.98736900  0.91296000  1
  C  C74  1  0.98736900  0.96622000  0.41296000  1
  C  C75  1  0.03378000  0.01263100  0.08704000  1
  C  C76  1  0.74883200  0.12738400  0.66518300  1
  C  C77  1  0.87261600  0.25116800  0.83481700  1
  C  C78  1  0.25116800  0.87261600  0.33481700  1
  C  C79  1  0.12738400  0.74883200  0.16518300  1
  C  C80  1  0.79728600  0.84826400  0.58033100  1
  C  C81  1  0.15173600  0.20271400  0.91966900  1
  C  C82  1  0.20271400  0.15173600  0.41966900  1
  C  C83  1  0.84826400  0.79728600  0.08033100  1
  C  C84  1  0.06183600  0.69014400  0.61953100  1
  C  C85  1  0.30985600  0.93816400  0.88046900  1
  C  C86  1  0.93816400  0.30985600  0.38046900  1
  C  C87  1  0.69014400  0.06183600  0.11953100  1
  C  C88  1  0.94571000  0.52667600  0.72510400  1
  C  C89  1  0.47332400  0.05429000  0.77489600  1
  C  C90  1  0.05429000  0.47332400  0.27489600  1
  C  C91  1  0.52667600  0.94571000  0.22510400  1
  C  C92  1  0.68260600  0.68727400  0.68496300  1
  C  C93  1  0.31272600  0.31739400  0.81503700  1
  C  C94  1  0.31739400  0.31272600  0.31503700  1
  C  C95  1  0.68727400  0.68260600  0.18496300  1
  C  C96  1  0.82319600  0.81406400  0.70948700  1
  C  C97  1  0.18593600  0.17680400  0.79051300  1
  C  C98  1  0.17680400  0.18593600  0.29051300  1
  C  C99  1  0.81406400  0.82319600  0.20948700  1
  C  C100  1  0.49831300  0.26964000  0.48099900  1
  C  C101  1  0.73036000  0.50168700  0.01900100  1
  C  C102  1  0.50168700  0.73036000  0.51900100  1
  C  C103  1  0.26964000  0.49831300  0.98099900  1
  C  C104  1  0.21460200  0.23116000  0.64294500  1
  C  C105  1  0.76884000  0.78539800  0.85705500  1
  C  C106  1  0.78539800  0.76884000  0.35705500  1
  C  C107  1  0.23116000  0.21460200  0.14294500  1
  C  C108  1  0.37062700  0.39296200  0.59603500  1
  C  C109  1  0.60703800  0.62937300  0.90396500  1
  C  C110  1  0.62937300  0.60703800  0.40396500  1
  C  C111  1  0.39296200  0.37062700  0.09603500  1
  C  C112  1  0.34067500  0.10884200  0.53088900  1
  C  C113  1  0.89115800  0.65932500  0.96911100  1
  C  C114  1  0.65932500  0.89115800  0.46911100  1
  C  C115  1  0.10884200  0.34067500  0.03088900  1
  C  C116  1  0.50451800  0.10296100  0.60789700  1
  C  C117  1  0.89703900  0.49548200  0.89210300  1
  C  C118  1  0.49548200  0.89703900  0.39210300  1
  C  C119  1  0.10296100  0.50451800  0.10789700  1
