# generated using pymatgen
data_CuNiC6
_symmetry_space_group_name_H-M   'P 1'
_cell_length_a   5.92058320
_cell_length_b   5.92061764
_cell_length_c   5.93391048
_cell_angle_alpha   120.06042968
_cell_angle_beta   120.05990780
_cell_angle_gamma   89.88255360
_symmetry_Int_Tables_number   1
_chemical_formula_structural   CuNiC6
_chemical_formula_sum   'Cu2 Ni2 C12'
_cell_volume   146.96425356
_cell_formula_units_Z   2
loop_
 _symmetry_equiv_pos_site_id
 _symmetry_equiv_pos_as_xyz
  1  'x, y, z'
loop_
 _atom_site_type_symbol
 _atom_site_label
 _atom_site_symmetry_multiplicity
 _atom_site_fract_x
 _atom_site_fract_y
 _atom_site_fract_z
 _atom_site_occupancy
  C  C0  1  0.00000000  0.49999900  0.50000000  1
  C  C1  1  0.50000100  0.49999900  0.50000000  1
  C  C2  1  0.50000100  0.99999900  0.00000000  1
  C  C3  1  0.50000100  0.49999900  0.00000100  1
  Ni  Ni4  1  0.99999600  0.50000200  0.99999900  1
  Ni  Ni5  1  0.49999700  0.00000600  0.50000000  1
  Cu  Cu6  1  0.00000100  0.99999900  0.50000000  1
  Cu  Cu7  1  0.00000100  0.00000000  0.00000000  1
  C  C8  1  0.24532900  0.75542300  0.01272800  1
  C  C9  1  0.24181900  0.23095500  0.48759000  1
  C  C10  1  0.24457700  0.75467200  0.48727300  1
  C  C11  1  0.76904600  0.75818100  0.01241000  1
  C  C12  1  0.23095500  0.24181800  0.98759000  1
  C  C13  1  0.75542400  0.24532800  0.51272800  1
  C  C14  1  0.75818100  0.76904500  0.51241000  1
  C  C15  1  0.75467200  0.24457500  0.98727200  1
