# generated using pymatgen
data_Cu11Ni10C3
_symmetry_space_group_name_H-M   'P 1'
_cell_length_a   25.25083800
_cell_length_b   7.36895900
_cell_length_c   9.41623791
_cell_angle_alpha   74.00693705
_cell_angle_beta   90.00000000
_cell_angle_gamma   90.00000000
_symmetry_Int_Tables_number   1
_chemical_formula_structural   Cu11Ni10C3
_chemical_formula_sum   'Cu44 Ni40 C12'
_cell_volume   1684.28689601
_cell_formula_units_Z   4
loop_
 _symmetry_equiv_pos_site_id
 _symmetry_equiv_pos_as_xyz
  1  'x, y, z'
loop_
 _atom_site_type_symbol
 _atom_site_label
 _atom_site_symmetry_multiplicity
 _atom_site_fract_x
 _atom_site_fract_y
 _atom_site_fract_z
 _atom_site_occupancy
  C  C0  1  0.15588200  0.31788600  0.60970300  1
  C  C1  1  0.34411800  0.81788600  0.10970300  1
  C  C2  1  0.84411800  0.68211400  0.39029700  1
  C  C3  1  0.65588200  0.18211400  0.89029700  1
  C  C4  1  0.11205500  0.14275000  0.39386800  1
  C  C5  1  0.38794500  0.64275000  0.89386800  1
  C  C6  1  0.88794500  0.85725000  0.60613200  1
  C  C7  1  0.61205500  0.35725000  0.10613200  1
  C  C8  1  0.08576600  0.00344800  0.72953700  1
  C  C9  1  0.41423400  0.50344800  0.22953700  1
  C  C10  1  0.91423400  0.99655200  0.27046300  1
  C  C11  1  0.58576600  0.49655200  0.77046300  1
  Ni  Ni12  1  0.09036900  0.45964000  0.55866800  1
  Ni  Ni13  1  0.40963100  0.95964000  0.05866800  1
  Ni  Ni14  1  0.90963100  0.54036000  0.44133200  1
  Ni  Ni15  1  0.59036900  0.04036000  0.94133200  1
  Ni  Ni16  1  0.16476500  0.35632800  0.80253200  1
  Ni  Ni17  1  0.33523500  0.85632800  0.30253200  1
  Ni  Ni18  1  0.83523500  0.64367200  0.19746800  1
  Ni  Ni19  1  0.66476500  0.14367200  0.69746800  1
  Ni  Ni20  1  0.19625800  0.52545100  0.49055900  1
  Ni  Ni21  1  0.30374200  0.02545100  0.99055900  1
  Ni  Ni22  1  0.80374200  0.47454900  0.50944100  1
  Ni  Ni23  1  0.69625800  0.97454900  0.00944100  1
  Ni  Ni24  1  0.21438200  0.13860100  0.63236800  1
  Ni  Ni25  1  0.28561800  0.63860100  0.13236800  1
  Ni  Ni26  1  0.78561800  0.86139900  0.36763200  1
  Ni  Ni27  1  0.71438200  0.36139900  0.86763200  1
  Ni  Ni28  1  0.10585900  0.36196300  0.23742500  1
  Ni  Ni29  1  0.39414100  0.86196300  0.73742500  1
  Ni  Ni30  1  0.89414100  0.63803700  0.76257500  1
  Ni  Ni31  1  0.60585900  0.13803700  0.26257500  1
  Ni  Ni32  1  0.18168800  0.11720100  0.32174900  1
  Ni  Ni33  1  0.31831200  0.61720100  0.82174900  1
  Ni  Ni34  1  0.81831200  0.88279900  0.67825100  1
  Ni  Ni35  1  0.68168800  0.38279900  0.17825100  1
  Ni  Ni36  1  0.08360600  0.97836100  0.28481400  1
  Ni  Ni37  1  0.41639400  0.47836100  0.78481400  1
  Ni  Ni38  1  0.91639400  0.02163900  0.71518600  1
  Ni  Ni39  1  0.58360600  0.52163900  0.21518600  1
  Ni  Ni40  1  0.05757400  0.11052900  0.86938500  1
  Ni  Ni41  1  0.44242600  0.61052900  0.36938500  1
  Ni  Ni42  1  0.94242600  0.88947100  0.13061500  1
  Ni  Ni43  1  0.55757400  0.38947100  0.63061500  1
  Ni  Ni44  1  0.13941400  0.89543900  0.87138200  1
  Ni  Ni45  1  0.36058600  0.39543900  0.37138200  1
  Ni  Ni46  1  0.86058600  0.10456100  0.12861800  1
  Ni  Ni47  1  0.63941400  0.60456100  0.62861800  1
  Ni  Ni48  1  0.04335500  0.77569900  0.78776500  1
  Ni  Ni49  1  0.45664500  0.27569900  0.28776500  1
  Ni  Ni50  1  0.95664500  0.22430100  0.21223500  1
  Ni  Ni51  1  0.54335500  0.72430100  0.71223500  1
  Cu  Cu52  1  0.05326900  0.07629700  0.53396600  1
  Cu  Cu53  1  0.44673100  0.57629700  0.03396600  1
  Cu  Cu54  1  0.94673100  0.92370300  0.46603400  1
  Cu  Cu55  1  0.55326900  0.42370300  0.96603400  1
  Cu  Cu56  1  0.05278500  0.55242200  0.52535900  1
  Cu  Cu57  1  0.44721500  0.05242200  0.02535900  1
  Cu  Cu58  1  0.94721500  0.44757800  0.47464100  1
  Cu  Cu59  1  0.55278500  0.94757800  0.97464100  1
  Cu  Cu60  1  0.16795000  0.37855800  0.91976400  1
  Cu  Cu61  1  0.33205000  0.87855800  0.41976400  1
  Cu  Cu62  1  0.83205000  0.62144200  0.08023600  1
  Cu  Cu63  1  0.66795000  0.12144200  0.58023600  1
  Cu  Cu64  1  0.21937600  0.65589100  0.41997100  1
  Cu  Cu65  1  0.28062400  0.15589100  0.91997100  1
  Cu  Cu66  1  0.78062400  0.34410900  0.58002900  1
  Cu  Cu67  1  0.71937600  0.84410900  0.08002900  1
  Cu  Cu68  1  0.24818000  0.02842400  0.64453500  1
  Cu  Cu69  1  0.25182000  0.52842400  0.14453500  1
  Cu  Cu70  1  0.75182000  0.97157600  0.35546500  1
  Cu  Cu71  1  0.74818000  0.47157600  0.85546500  1
  Cu  Cu72  1  0.09761700  0.50288900  0.14756000  1
  Cu  Cu73  1  0.40238300  0.00288900  0.64756000  1
  Cu  Cu74  1  0.90238300  0.49711100  0.85244000  1
  Cu  Cu75  1  0.59761700  0.99711100  0.35244000  1
  Cu  Cu76  1  0.22417200  0.09320000  0.28357200  1
  Cu  Cu77  1  0.27582800  0.59320000  0.78357200  1
  Cu  Cu78  1  0.77582800  0.90680000  0.71642800  1
  Cu  Cu79  1  0.72417200  0.40680000  0.21642800  1
  Cu  Cu80  1  0.07237700  0.87105200  0.21977700  1
  Cu  Cu81  1  0.42762300  0.37105200  0.71977700  1
  Cu  Cu82  1  0.92762300  0.12894800  0.78022300  1
  Cu  Cu83  1  0.57237700  0.62894800  0.28022300  1
  Cu  Cu84  1  0.03735400  0.19041900  0.94584800  1
  Cu  Cu85  1  0.46264600  0.69041900  0.44584800  1
  Cu  Cu86  1  0.96264600  0.80958100  0.05415200  1
  Cu  Cu87  1  0.53735400  0.30958100  0.55415200  1
  Cu  Cu88  1  0.17390900  0.83323600  0.95189400  1
  Cu  Cu89  1  0.32609100  0.33323600  0.45189400  1
  Cu  Cu90  1  0.82609100  0.16676400  0.04810600  1
  Cu  Cu91  1  0.67390900  0.66676400  0.54810600  1
  Cu  Cu92  1  0.02332700  0.62902100  0.82942800  1
  Cu  Cu93  1  0.47667300  0.12902100  0.32942800  1
  Cu  Cu94  1  0.97667300  0.37097900  0.17057200  1
  Cu  Cu95  1  0.52332700  0.87097900  0.67057200  1
