# generated using pymatgen
data_Cu21NiC13
_symmetry_space_group_name_H-M   'P 1'
_cell_length_a   14.64506200
_cell_length_b   8.65929900
_cell_length_c   10.04227012
_cell_angle_alpha   58.11317446
_cell_angle_beta   90.00000000
_cell_angle_gamma   90.00000000
_symmetry_Int_Tables_number   1
_chemical_formula_structural   Cu21NiC13
_chemical_formula_sum   'Cu84 Ni4 C52'
_cell_volume   1081.33733600
_cell_formula_units_Z   4
loop_
 _symmetry_equiv_pos_site_id
 _symmetry_equiv_pos_as_xyz
  1  'x, y, z'
loop_
 _atom_site_type_symbol
 _atom_site_label
 _atom_site_symmetry_multiplicity
 _atom_site_fract_x
 _atom_site_fract_y
 _atom_site_fract_z
 _atom_site_occupancy
  C  C0  1  0.15796500  0.30636200  0.77482700  1
  C  C1  1  0.65796500  0.69363800  0.72517300  1
  C  C2  1  0.34203500  0.30636200  0.27482700  1
  C  C3  1  0.84203500  0.69363800  0.22517300  1
  Ni  Ni4  1  0.37366400  0.36166200  0.77233000  1
  Ni  Ni5  1  0.87366400  0.63833800  0.72767000  1
  Ni  Ni6  1  0.12633600  0.36166200  0.27233000  1
  Ni  Ni7  1  0.62633600  0.63833800  0.22767000  1
  Cu  Cu8  1  0.08194200  0.01668900  0.96904200  1
  Cu  Cu9  1  0.70097000  0.17685100  0.89614100  1
  Cu  Cu10  1  0.53678300  0.18179400  0.97211200  1
  Cu  Cu11  1  0.79277000  0.29637800  0.83937800  1
  Cu  Cu12  1  0.99234400  0.39520500  0.69200000  1
  Cu  Cu13  1  0.82762100  0.52255700  0.51906900  1
  Cu  Cu14  1  0.66274900  0.42141900  0.69856300  1
  Cu  Cu15  1  0.25144600  0.54851400  0.55731100  1
  Cu  Cu16  1  0.55426900  0.46801600  0.71238300  1
  Cu  Cu17  1  0.95827900  0.68042800  0.41367800  1
  Cu  Cu18  1  0.60981800  0.58582600  0.54199000  1
  Cu  Cu19  1  0.14509500  0.62859500  0.52792800  1
  Cu  Cu20  1  0.64509500  0.37140500  0.97207200  1
  Cu  Cu21  1  0.99349600  0.82785300  0.23362900  1
  Cu  Cu22  1  0.10981800  0.41417400  0.95801000  1
  Cu  Cu23  1  0.05426900  0.53198400  0.78761700  1
  Cu  Cu24  1  0.75144600  0.45148600  0.94268900  1
  Cu  Cu25  1  0.41758100  0.73256800  0.47505700  1
  Cu  Cu26  1  0.18326600  0.01149300  0.04026100  1
  Cu  Cu27  1  0.49201500  0.81767000  0.33808000  1
  Cu  Cu28  1  0.73164600  0.88892500  0.25313600  1
  Cu  Cu29  1  0.80176000  0.81321700  0.40399900  1
  Cu  Cu30  1  0.16274900  0.57858100  0.80143700  1
  Cu  Cu31  1  0.59145300  0.00067400  0.10166300  1
  Cu  Cu32  1  0.49234400  0.60479500  0.80800000  1
  Cu  Cu33  1  0.29277000  0.70362200  0.66062200  1
  Cu  Cu34  1  0.83688900  0.98219900  0.22882400  1
  Cu  Cu35  1  0.67237900  0.52255700  0.01907000  1
  Cu  Cu36  1  0.03678300  0.81820600  0.52788800  1
  Cu  Cu37  1  0.60226200  0.86454100  0.44549500  1
  Cu  Cu38  1  0.10226200  0.13545900  0.05450500  1
  Cu  Cu39  1  0.20097000  0.82314900  0.60385900  1
  Cu  Cu40  1  0.33688900  0.01780100  0.27117600  1
  Cu  Cu41  1  0.54172100  0.68042800  0.91367800  1
  Cu  Cu42  1  0.09145300  0.99932600  0.39833700  1
  Cu  Cu43  1  0.30176000  0.18678300  0.09600100  1
  Cu  Cu44  1  0.23164600  0.11107500  0.24686400  1
  Cu  Cu45  1  0.50650400  0.82785300  0.73362900  1
  Cu  Cu46  1  0.99201500  0.18233000  0.16192000  1
  Cu  Cu47  1  0.68326600  0.98850700  0.45973900  1
  Cu  Cu48  1  0.58194200  0.98331100  0.53095800  1
  Cu  Cu49  1  0.91758100  0.26743200  0.02494300  1
  Cu  Cu50  1  0.08241900  0.73256800  0.97505700  1
  Cu  Cu51  1  0.41805800  0.01668900  0.46904200  1
  Cu  Cu52  1  0.31673400  0.01149300  0.54026100  1
  Cu  Cu53  1  0.00798500  0.81767000  0.83808000  1
  Cu  Cu54  1  0.49349600  0.17214700  0.26637100  1
  Cu  Cu55  1  0.76835400  0.88892500  0.75313600  1
  Cu  Cu56  1  0.69824000  0.81321700  0.90399900  1
  Cu  Cu57  1  0.90854700  0.00067400  0.60166300  1
  Cu  Cu58  1  0.45827900  0.31957200  0.08632200  1
  Cu  Cu59  1  0.66311100  0.98219900  0.72882400  1
  Cu  Cu60  1  0.79903000  0.17685100  0.39614100  1
  Cu  Cu61  1  0.89773800  0.86454100  0.94549500  1
  Cu  Cu62  1  0.39773800  0.13545900  0.55450500  1
  Cu  Cu63  1  0.96321700  0.18179400  0.47211200  1
  Cu  Cu64  1  0.32762100  0.47744300  0.98093100  1
  Cu  Cu65  1  0.16311100  0.01780100  0.77117600  1
  Cu  Cu66  1  0.70723000  0.29637800  0.33937800  1
  Cu  Cu67  1  0.50765600  0.39520500  0.19200000  1
  Cu  Cu68  1  0.40854700  0.99932600  0.89833700  1
  Cu  Cu69  1  0.83725100  0.42141900  0.19856300  1
  Cu  Cu70  1  0.19824000  0.18678300  0.59600100  1
  Cu  Cu71  1  0.26835400  0.11107500  0.74686400  1
  Cu  Cu72  1  0.50798500  0.18233000  0.66192000  1
  Cu  Cu73  1  0.81673400  0.98850700  0.95973900  1
  Cu  Cu74  1  0.58241900  0.26743200  0.52494300  1
  Cu  Cu75  1  0.24855400  0.54851400  0.05731100  1
  Cu  Cu76  1  0.94573100  0.46801600  0.21238300  1
  Cu  Cu77  1  0.89018200  0.58582600  0.04199000  1
  Cu  Cu78  1  0.00650400  0.17214700  0.76637100  1
  Cu  Cu79  1  0.35490500  0.62859500  0.02792800  1
  Cu  Cu80  1  0.85490500  0.37140500  0.47207200  1
  Cu  Cu81  1  0.39018200  0.41417400  0.45801000  1
  Cu  Cu82  1  0.04172100  0.31957200  0.58632200  1
  Cu  Cu83  1  0.44573100  0.53198400  0.28761700  1
  Cu  Cu84  1  0.74855400  0.45148600  0.44268900  1
  Cu  Cu85  1  0.33725100  0.57858100  0.30143700  1
  Cu  Cu86  1  0.17237900  0.47744300  0.48093100  1
  Cu  Cu87  1  0.00765600  0.60479500  0.30800000  1
  Cu  Cu88  1  0.20723000  0.70362200  0.16062200  1
  Cu  Cu89  1  0.46321700  0.81820600  0.02788800  1
  Cu  Cu90  1  0.29903000  0.82314900  0.10385900  1
  Cu  Cu91  1  0.91805800  0.98331100  0.03095800  1
  C  C92  1  0.12853400  0.09613700  0.98229000  1
  C  C93  1  0.18319300  0.51370100  0.56168000  1
  C  C94  1  0.96431300  0.70271300  0.30180600  1
  C  C95  1  0.61599000  0.52527600  0.66148300  1
  C  C96  1  0.11599000  0.47472400  0.83851700  1
  C  C97  1  0.79921600  0.86380000  0.28507100  1
  C  C98  1  0.68319300  0.48629900  0.93832000  1
  C  C99  1  0.53568700  0.70271300  0.80180600  1
  C  C100  1  0.62853400  0.90386300  0.51771000  1
  C  C101  1  0.29921600  0.13620000  0.21492900  1
  C  C102  1  0.70078400  0.86380000  0.78507100  1
  C  C103  1  0.37146600  0.09613700  0.48229000  1
  C  C104  1  0.46431300  0.29728700  0.19819400  1
  C  C105  1  0.31680700  0.51370100  0.06168000  1
  C  C106  1  0.20078400  0.13620000  0.71492900  1
  C  C107  1  0.88401000  0.52527600  0.16148300  1
  C  C108  1  0.38401000  0.47472400  0.33851700  1
  C  C109  1  0.03568700  0.29728700  0.69819400  1
  C  C110  1  0.81680700  0.48629900  0.43832000  1
  C  C111  1  0.87146600  0.90386300  0.01771000  1
  C  C112  1  0.75300900  0.21482600  0.82220300  1
  C  C113  1  0.27920700  0.30735300  0.86156700  1
  C  C114  1  0.44662800  0.35435500  0.88787300  1
  C  C115  1  0.36477700  0.55916200  0.62771400  1
  C  C116  1  0.60134500  0.77443600  0.27905400  1
  C  C117  1  0.86477700  0.44083800  0.87228600  1
  C  C118  1  0.94662800  0.64564500  0.61212700  1
  C  C119  1  0.77920700  0.69264700  0.63843300  1
  C  C120  1  0.44268900  0.85037000  0.38665400  1
  C  C121  1  0.59809800  0.12918000  0.01342500  1
  C  C122  1  0.09809800  0.87082000  0.48657500  1
  C  C123  1  0.25300900  0.78517400  0.67779700  1
  C  C124  1  0.94268900  0.14963000  0.11334600  1
  C  C125  1  0.89865500  0.77443600  0.77905400  1
  C  C126  1  0.10134500  0.22556400  0.22094600  1
  C  C127  1  0.05731100  0.85037000  0.88665400  1
  C  C128  1  0.74699100  0.21482600  0.32220300  1
  C  C129  1  0.90190200  0.12918000  0.51342500  1
  C  C130  1  0.40190200  0.87082000  0.98657500  1
  C  C131  1  0.55731100  0.14963000  0.61334600  1
  C  C132  1  0.22079300  0.30735300  0.36156700  1
  C  C133  1  0.05337200  0.35435500  0.38787300  1
  C  C134  1  0.13522300  0.55916200  0.12771400  1
  C  C135  1  0.39865500  0.22556400  0.72094600  1
  C  C136  1  0.63522300  0.44083800  0.37228600  1
  C  C137  1  0.55337200  0.64564500  0.11212700  1
  C  C138  1  0.72079300  0.69264700  0.13843300  1
  C  C139  1  0.24699100  0.78517400  0.17779700  1
