# generated using pymatgen
data_Cu10Ni22C3
_symmetry_space_group_name_H-M   'P 1'
_cell_length_a   15.94064344
_cell_length_b   14.10452314
_cell_length_c   11.41876859
_cell_angle_alpha   76.49523477
_cell_angle_beta   59.35595696
_cell_angle_gamma   44.14880827
_symmetry_Int_Tables_number   1
_chemical_formula_structural   Cu10Ni22C3
_chemical_formula_sum   'Cu40 Ni88 C12'
_cell_volume   1500.58611336
_cell_formula_units_Z   4
loop_
 _symmetry_equiv_pos_site_id
 _symmetry_equiv_pos_as_xyz
  1  'x, y, z'
loop_
 _atom_site_type_symbol
 _atom_site_label
 _atom_site_symmetry_multiplicity
 _atom_site_fract_x
 _atom_site_fract_y
 _atom_site_fract_z
 _atom_site_occupancy
  Ni  Ni0  1  0.97468100  0.11399900  0.79545000  1
  Ni  Ni1  1  0.11587000  0.79545000  0.11399900  1
  Ni  Ni2  1  0.13600100  0.27531900  0.13413000  1
  Ni  Ni3  1  0.45455000  0.13413000  0.27531900  1
  Ni  Ni4  1  0.81550500  0.27011900  0.92579400  1
  Ni  Ni5  1  0.98858200  0.92579400  0.27011900  1
  Ni  Ni6  1  0.97988100  0.43449500  0.26141800  1
  Ni  Ni7  1  0.32420600  0.26141800  0.43449500  1
  Ni  Ni8  1  0.86529200  0.31838500  0.68507000  1
  Ni  Ni9  1  0.13125400  0.68507000  0.31838500  1
  Ni  Ni10  1  0.93161500  0.38470800  0.11874600  1
  Ni  Ni11  1  0.56493000  0.11874600  0.38470800  1
  Ni  Ni12  1  0.04032200  0.39180400  0.96522700  1
  Ni  Ni13  1  0.60264800  0.96522700  0.39180400  1
  Ni  Ni14  1  0.85819600  0.20967800  0.64735200  1
  Ni  Ni15  1  0.28477300  0.64735200  0.20967800  1
  Ni  Ni16  1  0.79387400  0.62507800  0.22870300  1
  Ni  Ni17  1  0.35234500  0.22870300  0.62507800  1
  Ni  Ni18  1  0.62492200  0.45612600  0.89765500  1
  Ni  Ni19  1  0.02129700  0.89765500  0.45612600  1
  Ni  Ni20  1  0.15659700  0.93148500  0.43132400  1
  Ni  Ni21  1  0.48059400  0.43132400  0.93148500  1
  Ni  Ni22  1  0.31851500  0.09340300  0.76940600  1
  Ni  Ni23  1  0.81867600  0.76940600  0.09340300  1
  Ni  Ni24  1  0.39347400  0.70095000  0.20000300  1
  Ni  Ni25  1  0.70557300  0.20000300  0.70095000  1
  Ni  Ni26  1  0.54905000  0.85652600  0.54442700  1
  Ni  Ni27  1  0.04999700  0.54442700  0.85652600  1
  Ni  Ni28  1  0.23579900  0.07098100  0.65370600  1
  Ni  Ni29  1  0.03951400  0.65370600  0.07098100  1
  Ni  Ni30  1  0.17901900  0.01420100  0.21048600  1
  Ni  Ni31  1  0.59629400  0.21048600  0.01420100  1
  Ni  Ni32  1  0.08498600  0.33641500  0.73674700  1
  Ni  Ni33  1  0.84185200  0.73674700  0.33641500  1
  Ni  Ni34  1  0.91358500  0.16501400  0.40814800  1
  Ni  Ni35  1  0.51325300  0.40814800  0.16501400  1
  Ni  Ni36  1  0.25528700  0.16437000  0.31189100  1
  Ni  Ni37  1  0.26845100  0.31189100  0.16437000  1
  Ni  Ni38  1  0.08563000  0.99471300  0.98154900  1
  Ni  Ni39  1  0.93810900  0.98154900  0.99471300  1
  Ni  Ni40  1  0.18087600  0.12523900  0.46842200  1
  Ni  Ni41  1  0.22546200  0.46842200  0.12523900  1
  Ni  Ni42  1  0.12476100  0.06912400  0.02453800  1
  Ni  Ni43  1  0.78157800  0.02453800  0.06912400  1
  Ni  Ni44  1  0.13914800  0.27920700  0.47813600  1
  Ni  Ni45  1  0.10351000  0.47813600  0.27920700  1
  Ni  Ni46  1  0.97079300  0.11085200  0.14649000  1
  Ni  Ni47  1  0.77186400  0.14649000  0.11085200  1
  Ni  Ni48  1  0.74093900  0.49803900  0.10356100  1
  Ni  Ni49  1  0.65746100  0.10356100  0.49803900  1
  Ni  Ni50  1  0.75196100  0.50906100  0.59253900  1
  Ni  Ni51  1  0.14643900  0.59253900  0.50906100  1
  Ni  Ni52  1  0.60533200  0.66081900  0.07133900  1
  Ni  Ni53  1  0.66250900  0.07133900  0.66081900  1
  Ni  Ni54  1  0.58918100  0.64466800  0.58749100  1
  Ni  Ni55  1  0.17866100  0.58749100  0.64466800  1
  Ni  Ni56  1  0.56872800  0.62868000  0.35841900  1
  Ni  Ni57  1  0.44417200  0.35841900  0.62868000  1
  Ni  Ni58  1  0.62132000  0.68127200  0.80582800  1
  Ni  Ni59  1  0.89158100  0.80582800  0.68127200  1
  Ni  Ni60  1  0.73571900  0.68092300  0.81971600  1
  Ni  Ni61  1  0.76364200  0.81971600  0.68092300  1
  Ni  Ni62  1  0.56907700  0.51428100  0.48635800  1
  Ni  Ni63  1  0.43028400  0.48635800  0.51428100  1
  Ni  Ni64  1  0.00784800  0.38355500  0.76886900  1
  Ni  Ni65  1  0.83972800  0.76886900  0.38355500  1
  Ni  Ni66  1  0.86644500  0.24215200  0.41027200  1
  Ni  Ni67  1  0.48113100  0.41027200  0.24215200  1
  Ni  Ni68  1  0.88575600  0.65238600  0.80952100  1
  Ni  Ni69  1  0.65233700  0.80952100  0.65238600  1
  Ni  Ni70  1  0.59761400  0.36424400  0.59766300  1
  Ni  Ni71  1  0.44047900  0.59766300  0.36424400  1
  Ni  Ni72  1  0.34319100  0.81344500  0.54409900  1
  Ni  Ni73  1  0.29926500  0.54409900  0.81344500  1
  Ni  Ni74  1  0.43655500  0.90680900  0.95073500  1
  Ni  Ni75  1  0.70590100  0.95073500  0.90680900  1
  Ni  Ni76  1  0.37379800  0.83744500  0.54069500  1
  Ni  Ni77  1  0.24806200  0.54069500  0.83744500  1
  Ni  Ni78  1  0.41255500  0.87620200  0.00193800  1
  Ni  Ni79  1  0.70930500  0.00193800  0.87620200  1
  Ni  Ni80  1  0.18678900  0.75637100  0.56875300  1
  Ni  Ni81  1  0.48808700  0.56875300  0.75637100  1
  Ni  Ni82  1  0.49362900  0.06321100  0.76191300  1
  Ni  Ni83  1  0.68124700  0.76191300  0.06321100  1
  Ni  Ni84  1  0.33188600  0.82134300  0.93934400  1
  Ni  Ni85  1  0.90742700  0.93934400  0.82134300  1
  Ni  Ni86  1  0.42865700  0.91811400  0.34257300  1
  Ni  Ni87  1  0.31065600  0.34257300  0.91811400  1
  Cu  Cu88  1  0.34709900  0.08940200  0.44376600  1
  Cu  Cu89  1  0.11973300  0.44376600  0.08940200  1
  Cu  Cu90  1  0.16059800  0.90290100  0.13026700  1
  Cu  Cu91  1  0.80623400  0.13026700  0.90290100  1
  Cu  Cu92  1  0.40947300  0.14802400  0.38973200  1
  Cu  Cu93  1  0.05277100  0.38973200  0.14802400  1
  Cu  Cu94  1  0.10197600  0.84052700  0.19722900  1
  Cu  Cu95  1  0.86026800  0.19722900  0.84052700  1
  Cu  Cu96  1  0.51808600  0.07927800  0.43135900  1
  Cu  Cu97  1  0.97127800  0.43135900  0.07927800  1
  Cu  Cu98  1  0.17072200  0.73191400  0.27872200  1
  Cu  Cu99  1  0.81864100  0.27872200  0.73191400  1
  Cu  Cu100  1  0.44540100  0.11377200  0.59182500  1
  Cu  Cu101  1  0.84900200  0.59182500  0.11377200  1
  Cu  Cu102  1  0.13622800  0.80459900  0.40099800  1
  Cu  Cu103  1  0.65817500  0.40099800  0.80459900  1
  Cu  Cu104  1  0.38494800  0.05284700  0.65536400  1
  Cu  Cu105  1  0.90684100  0.65536400  0.05284700  1
  Cu  Cu106  1  0.19715300  0.86505200  0.34315900  1
  Cu  Cu107  1  0.59463600  0.34315900  0.86505200  1
  Cu  Cu108  1  0.30638100  0.08292400  0.59410300  1
  Cu  Cu109  1  0.01659200  0.59410300  0.08292400  1
  Cu  Cu110  1  0.16707600  0.94361900  0.23340800  1
  Cu  Cu111  1  0.65589700  0.23340800  0.94361900  1
  Cu  Cu112  1  0.22398000  0.16902900  0.42324400  1
  Cu  Cu113  1  0.18374700  0.42324400  0.16902900  1
  Cu  Cu114  1  0.08097100  0.02602000  0.06625300  1
  Cu  Cu115  1  0.82675600  0.06625300  0.02602000  1
  Cu  Cu116  1  0.52432600  0.08256800  0.65597900  1
  Cu  Cu117  1  0.73712700  0.65597900  0.08256800  1
  Cu  Cu118  1  0.16743200  0.72567400  0.51287300  1
  Cu  Cu119  1  0.59402100  0.51287300  0.72567400  1
  Cu  Cu120  1  0.44746800  0.39362900  0.53004400  1
  Cu  Cu121  1  0.62886000  0.53004400  0.39362900  1
  Cu  Cu122  1  0.85637100  0.80253200  0.62114000  1
  Cu  Cu123  1  0.71995600  0.62114000  0.80253200  1
  Cu  Cu124  1  0.61858900  0.08588700  0.60212700  1
  Cu  Cu125  1  0.69339700  0.60212700  0.08588700  1
  Cu  Cu126  1  0.16411300  0.63141100  0.55660300  1
  Cu  Cu127  1  0.64787300  0.55660300  0.63141100  1
  C  C128  1  0.46526800  0.94361100  0.35903200  1
  C  C129  1  0.23208800  0.35903200  0.94361100  1
  C  C130  1  0.30638900  0.78473200  0.01791200  1
  C  C131  1  0.89096800  0.01791200  0.78473200  1
  C  C132  1  0.80942200  0.49378800  0.77762400  1
  C  C133  1  0.91916600  0.77762400  0.49378800  1
  C  C134  1  0.75621200  0.44057800  0.33083400  1
  C  C135  1  0.47237600  0.33083400  0.44057800  1
  C  C136  1  0.34883300  0.76004100  0.28517700  1
  C  C137  1  0.60594900  0.28517700  0.76004100  1
  C  C138  1  0.48995900  0.90116700  0.64405100  1
  C  C139  1  0.96482300  0.64405100  0.90116700  1
