# generated using pymatgen
data_Cu5Ni2C15
_symmetry_space_group_name_H-M   'P 1'
_cell_length_a   21.71630700
_cell_length_b   6.33974900
_cell_length_c   7.55060846
_cell_angle_alpha   83.30060401
_cell_angle_beta   90.00000000
_cell_angle_gamma   90.00000000
_symmetry_Int_Tables_number   1
_chemical_formula_structural   Cu5Ni2C15
_chemical_formula_sum   'Cu10 Ni4 C30'
_cell_volume   1032.43900012
_cell_formula_units_Z   2
loop_
 _symmetry_equiv_pos_site_id
 _symmetry_equiv_pos_as_xyz
  1  'x, y, z'
loop_
 _atom_site_type_symbol
 _atom_site_label
 _atom_site_symmetry_multiplicity
 _atom_site_fract_x
 _atom_site_fract_y
 _atom_site_fract_z
 _atom_site_occupancy
  C  C0  1  0.62600500  0.00582600  0.60789600  1
  C  C1  1  0.12600500  0.99417400  0.39210400  1
  C  C2  1  0.81699600  0.87533400  0.33042300  1
  C  C3  1  0.31699600  0.12466600  0.66957700  1
  C  C4  1  0.96592000  0.74553100  0.82253300  1
  C  C5  1  0.46592000  0.25446900  0.17746700  1
  C  C6  1  0.80056400  0.31532600  0.79211500  1
  C  C7  1  0.30056400  0.68467400  0.20788500  1
  C  C8  1  0.64383200  0.57363200  0.13884800  1
  C  C9  1  0.14383200  0.42636800  0.86115200  1
  Ni  Ni10  1  0.78757700  0.81073600  0.81337200  1
  Ni  Ni11  1  0.28757700  0.18926400  0.18662800  1
  Ni  Ni12  1  0.65729700  0.07698800  0.12590800  1
  Ni  Ni13  1  0.15729700  0.92301200  0.87409200  1
  Cu  Cu14  1  0.89099600  0.24373400  0.58749400  1
  Cu  Cu15  1  0.39099600  0.75626600  0.41250600  1
  Cu  Cu16  1  0.87489000  0.36703100  0.05948600  1
  Cu  Cu17  1  0.37489000  0.63296900  0.94051400  1
  Cu  Cu18  1  0.72283400  0.44355800  0.47431900  1
  Cu  Cu19  1  0.22283400  0.55644200  0.52568100  1
  Cu  Cu20  1  0.55326500  0.63342300  0.34713500  1
  Cu  Cu21  1  0.05326500  0.36657700  0.65286500  1
  Cu  Cu22  1  0.57011400  0.52761000  0.87416800  1
  Cu  Cu23  1  0.07011400  0.47239000  0.12583200  1
  C  C24  1  0.82331200  0.93614200  0.93466200  1
  C  C25  1  0.32331200  0.06385800  0.06533800  1
  C  C26  1  0.75416500  0.96512400  0.68419500  1
  C  C27  1  0.25416500  0.03487600  0.31580500  1
  C  C28  1  0.83195900  0.68294900  0.71287400  1
  C  C29  1  0.33195900  0.31705100  0.28712600  1
  C  C30  1  0.74537700  0.65576800  0.91424000  1
  C  C31  1  0.24537700  0.34423200  0.08576000  1
  C  C32  1  0.69987900  0.23245300  0.02650300  1
  C  C33  1  0.19987900  0.76754700  0.97349700  1
  C  C34  1  0.61156700  0.20520200  0.22082100  1
  C  C35  1  0.11156700  0.79479800  0.77917900  1
  C  C36  1  0.62394100  0.94744400  0.00245800  1
  C  C37  1  0.12394100  0.05255600  0.99754200  1
  C  C38  1  0.68990200  0.92531900  0.25918100  1
  C  C39  1  0.18990200  0.07468100  0.74081900  1
  C  C40  1  0.97217400  0.87766700  0.31464700  1
  C  C41  1  0.47217400  0.12233300  0.68535300  1
  C  C42  1  0.97483100  0.99733600  0.17302900  1
  C  C43  1  0.47483100  0.00266400  0.82697100  1
