# generated using pymatgen
data_Cu2Ni11C13
_symmetry_space_group_name_H-M   'P 1'
_cell_length_a   5.26696711
_cell_length_b   19.97259062
_cell_length_c   5.26696711
_cell_angle_alpha   97.57678959
_cell_angle_beta   70.46645065
_cell_angle_gamma   92.52680621
_symmetry_Int_Tables_number   1
_chemical_formula_structural   Cu2Ni11C13
_chemical_formula_sum   'Cu4 Ni22 C26'
_cell_volume   517.61108533
_cell_formula_units_Z   2
loop_
 _symmetry_equiv_pos_site_id
 _symmetry_equiv_pos_as_xyz
  1  'x, y, z'
loop_
 _atom_site_type_symbol
 _atom_site_label
 _atom_site_symmetry_multiplicity
 _atom_site_fract_x
 _atom_site_fract_y
 _atom_site_fract_z
 _atom_site_occupancy
  Ni  Ni0  1  0.50000000  0.30769200  0.65384600  1
  Ni  Ni1  1  0.00000000  0.30769200  0.15384600  1
  Ni  Ni2  1  0.50000000  0.15603900  0.57801900  1
  Ni  Ni3  1  0.00000000  0.15603900  0.07801900  1
  Ni  Ni4  1  0.50000000  0.45934600  0.72967300  1
  Ni  Ni5  1  0.00000000  0.45934600  0.22967300  1
  Ni  Ni6  1  0.50000000  0.77063500  0.88531800  1
  Ni  Ni7  1  0.00000000  0.77063500  0.38531800  1
  Ni  Ni8  1  0.50000000  0.84475000  0.42237500  1
  Ni  Ni9  1  0.00000000  0.84475000  0.92237500  1
  Ni  Ni10  1  0.50000000  0.92174400  0.96087100  1
  Ni  Ni11  1  0.00000000  0.92174400  0.46087100  1
  Ni  Ni12  1  0.50000000  0.69364100  0.34682100  1
  Ni  Ni13  1  0.00000000  0.69364100  0.84682100  1
  Ni  Ni14  1  0.50000000  0.23150800  0.11575400  1
  Ni  Ni15  1  0.00000000  0.23150800  0.61575400  1
  Ni  Ni16  1  0.50000000  0.38387700  0.19193800  1
  Ni  Ni17  1  0.00000000  0.38387700  0.69193800  1
  Ni  Ni18  1  0.50000000  0.07915600  0.03957800  1
  Ni  Ni19  1  0.00000000  0.07915600  0.53957800  1
  Ni  Ni20  1  0.50000000  0.53622900  0.26811400  1
  Ni  Ni21  1  0.00000000  0.53622900  0.76811400  1
  Cu  Cu22  1  0.00000000  0.61521800  0.30760900  1
  Cu  Cu23  1  0.50000000  0.00016600  0.50008300  1
  Cu  Cu24  1  0.50000000  0.61521800  0.80760900  1
  Cu  Cu25  1  0.00000000  0.00016600  0.00008300  1
  C  C26  1  0.75000000  0.30769200  0.90384600  1
  C  C27  1  0.25000000  0.30769200  0.40384600  1
  C  C28  1  0.25000000  0.08222800  0.79111400  1
  C  C29  1  0.75000000  0.08222800  0.29111400  1
  C  C30  1  0.25000000  0.53315700  0.01657800  1
  C  C31  1  0.75000000  0.53315700  0.51657800  1
  C  C32  1  0.25000000  0.38348200  0.94174000  1
  C  C33  1  0.75000000  0.38348200  0.44174000  1
  C  C34  1  0.25000000  0.23190300  0.86595200  1
  C  C35  1  0.75000000  0.23190300  0.36595200  1
  C  C36  1  0.25000000  0.69716900  0.09858400  1
  C  C37  1  0.75000000  0.69716900  0.59858400  1
  C  C38  1  0.75000000  0.91821600  0.20910900  1
  C  C39  1  0.25000000  0.91821600  0.70910900  1
  C  C40  1  0.25000000  0.84650100  0.17325100  1
  C  C41  1  0.75000000  0.84650100  0.67325100  1
  C  C42  1  0.75000000  0.76888300  0.13444200  1
  C  C43  1  0.25000000  0.76888300  0.63444200  1
  C  C44  1  0.75000000  0.46039300  0.98019700  1
  C  C45  1  0.25000000  0.46039300  0.48019700  1
  C  C46  1  0.75000000  0.15499200  0.82749500  1
  C  C47  1  0.25000000  0.15499200  0.32749500  1
  C  C48  1  0.75000000  0.61502500  0.05751300  1
  C  C49  1  0.25000000  0.61502500  0.55751300  1
  C  C50  1  0.75000000  0.00036000  0.75017900  1
  C  C51  1  0.25000000  0.00036000  0.25017900  1
