# generated using pymatgen
data_Cu6Ni2C7
_symmetry_space_group_name_H-M   'P 1'
_cell_length_a   5.26384155
_cell_length_b   5.94325295
_cell_length_c   10.44901011
_cell_angle_alpha   89.02161269
_cell_angle_beta   80.05865371
_cell_angle_gamma   72.16652367
_symmetry_Int_Tables_number   1
_chemical_formula_structural   Cu6Ni2C7
_chemical_formula_sum   'Cu12 Ni4 C14'
_cell_volume   306.28766513
_cell_formula_units_Z   2
loop_
 _symmetry_equiv_pos_site_id
 _symmetry_equiv_pos_as_xyz
  1  'x, y, z'
loop_
 _atom_site_type_symbol
 _atom_site_label
 _atom_site_symmetry_multiplicity
 _atom_site_fract_x
 _atom_site_fract_y
 _atom_site_fract_z
 _atom_site_occupancy
  C  C0  1  0.98005100  0.00180000  0.49377400  1
  C  C1  1  0.97953800  0.00182200  0.99377500  1
  C  C2  1  0.02047400  0.74817800  0.25623400  1
  C  C3  1  0.01992700  0.74820500  0.75625100  1
  C  C4  1  0.00102800  0.23578700  0.24171800  1
  C  C5  1  0.00128000  0.23623500  0.74129800  1
  C  C6  1  0.99899100  0.51423200  0.00827400  1
  C  C7  1  0.99872300  0.51378900  0.50871200  1
  C  C8  1  0.50000400  0.87498800  0.12501700  1
  C  C9  1  0.49388000  0.10919300  0.87347900  1
  C  C10  1  0.50608300  0.64081500  0.37653900  1
  C  C11  1  0.50001400  0.87501500  0.62498400  1
  C  C12  1  0.49521500  0.10839500  0.37303600  1
  C  C13  1  0.50478600  0.64156400  0.87694300  1
  Ni  Ni14  1  0.27153400  0.93197300  0.30095700  1
  Ni  Ni15  1  0.27162900  0.93231400  0.80125500  1
  Ni  Ni16  1  0.72834300  0.81772100  0.44877600  1
  Ni  Ni17  1  0.72852400  0.81800100  0.94900800  1
  Cu  Cu18  1  0.20858400  0.18412500  0.05580000  1
  Cu  Cu19  1  0.20888200  0.18316100  0.55597000  1
  Cu  Cu20  1  0.79143500  0.56591000  0.19419400  1
  Cu  Cu21  1  0.79109200  0.56685100  0.69404600  1
  Cu  Cu22  1  0.76682500  0.04653000  0.19046100  1
  Cu  Cu23  1  0.76697700  0.04555500  0.69078500  1
  Cu  Cu24  1  0.23321100  0.70346400  0.05951200  1
  Cu  Cu25  1  0.23306000  0.70440400  0.55922800  1
  Cu  Cu26  1  0.75024300  0.30638100  0.41787800  1
  Cu  Cu27  1  0.74827800  0.30692700  0.91720800  1
  Cu  Cu28  1  0.25167500  0.44303900  0.33278000  1
  Cu  Cu29  1  0.24971400  0.44362400  0.83211000  1
