# generated using pymatgen
data_CuNiC4
_symmetry_space_group_name_H-M   'P 1'
_cell_length_a   6.19038000
_cell_length_b   6.19038000
_cell_length_c   8.55942200
_cell_angle_alpha   90.00000000
_cell_angle_beta   90.00000000
_cell_angle_gamma   90.00000000
_symmetry_Int_Tables_number   1
_chemical_formula_structural   CuNiC4
_chemical_formula_sum   'Cu4 Ni4 C16'
_cell_volume   328.00393748
_cell_formula_units_Z   4
loop_
 _symmetry_equiv_pos_site_id
 _symmetry_equiv_pos_as_xyz
  1  'x, y, z'
loop_
 _atom_site_type_symbol
 _atom_site_label
 _atom_site_symmetry_multiplicity
 _atom_site_fract_x
 _atom_site_fract_y
 _atom_site_fract_z
 _atom_site_occupancy
  Ni  Ni0  1  0.20563200  0.50000000  0.25000000  1
  Ni  Ni1  1  0.50000000  0.20563200  0.00000000  1
  Ni  Ni2  1  0.50000000  0.79436800  0.50000000  1
  Ni  Ni3  1  0.79436800  0.50000000  0.75000000  1
  Cu  Cu4  1  0.26506200  0.26506200  0.62500000  1
  Cu  Cu5  1  0.26506200  0.73493800  0.87500000  1
  Cu  Cu6  1  0.73493800  0.26506200  0.37500000  1
  Cu  Cu7  1  0.73493800  0.73493800  0.12500000  1
  C  C8  1  0.00393100  0.27721100  0.27211000  1
  C  C9  1  0.00393100  0.72278900  0.22789000  1
  C  C10  1  0.27721100  0.00393100  0.97789000  1
  C  C11  1  0.27721100  0.99606900  0.52211000  1
  C  C12  1  0.27793200  0.49510200  0.01930400  1
  C  C13  1  0.27793200  0.50489800  0.48069500  1
  C  C14  1  0.49510200  0.27793200  0.23069500  1
  C  C15  1  0.49510200  0.72206800  0.26930500  1
  C  C16  1  0.50489800  0.27793200  0.76930400  1
  C  C17  1  0.50489800  0.72206800  0.73069600  1
  C  C18  1  0.72206800  0.50489800  0.51930400  1
  C  C19  1  0.72206800  0.49510200  0.98069600  1
  C  C20  1  0.72278900  0.00393100  0.02211000  1
  C  C21  1  0.72278900  0.99606900  0.47789000  1
  C  C22  1  0.99606900  0.27721100  0.72789000  1
  C  C23  1  0.99606900  0.72278900  0.77211000  1
