# generated using pymatgen
data_Cu3Ni2C23
_symmetry_space_group_name_H-M   'P 1'
_cell_length_a   6.02069315
_cell_length_b   6.02069315
_cell_length_c   9.85171273
_cell_angle_alpha   89.56727140
_cell_angle_beta   89.56727140
_cell_angle_gamma   60.80906926
_symmetry_Int_Tables_number   1
_chemical_formula_structural   Cu3Ni2C23
_chemical_formula_sum   'Cu3 Ni2 C23'
_cell_volume   311.74677205
_cell_formula_units_Z   1
loop_
 _symmetry_equiv_pos_site_id
 _symmetry_equiv_pos_as_xyz
  1  'x, y, z'
loop_
 _atom_site_type_symbol
 _atom_site_label
 _atom_site_symmetry_multiplicity
 _atom_site_fract_x
 _atom_site_fract_y
 _atom_site_fract_z
 _atom_site_occupancy
  C  C0  1  0.66641200  0.66641200  0.90336400  1
  C  C1  1  0.00327300  0.00327300  0.99875200  1
  C  C2  1  0.02019300  0.02019300  0.48538600  1
  C  C3  1  0.33077100  0.33077100  0.39094100  1
  Ni  Ni4  1  0.63697100  0.63697100  0.48459600  1
  Ni  Ni5  1  0.32687000  0.32687000  0.01090800  1
  Cu  Cu6  1  0.82053000  0.82053000  0.22885800  1
  Cu  Cu7  1  0.65169900  0.15811200  0.71567600  1
  Cu  Cu8  1  0.15811200  0.65169900  0.71567600  1
  C  C9  1  0.82614100  0.34186200  0.20858600  1
  C  C10  1  0.34186200  0.82614100  0.20858600  1
  C  C11  1  0.18767600  0.18767600  0.71140800  1
  C  C12  1  0.81973700  0.33887100  0.59306500  1
  C  C13  1  0.51764300  0.51764300  0.35009400  1
  C  C14  1  0.67485900  0.67485900  0.09965900  1
  C  C15  1  0.99711900  0.99711900  0.30023300  1
  C  C16  1  0.99830500  0.99830500  0.80717200  1
  C  C17  1  0.33887100  0.81973700  0.59306500  1
  C  C18  1  0.96331800  0.52887300  0.35087100  1
  C  C19  1  0.52887300  0.96331800  0.35087100  1
  C  C20  1  0.17021900  0.17021900  0.09290800  1
  C  C21  1  0.83545600  0.83545600  0.60070800  1
  C  C22  1  0.49747700  0.03771200  0.85000000  1
  C  C23  1  0.03771200  0.49747700  0.85000000  1
  C  C24  1  0.34892400  0.34892400  0.58950900  1
  C  C25  1  0.65154500  0.16342300  0.09422300  1
  C  C26  1  0.48463400  0.48463400  0.82856200  1
  C  C27  1  0.16342300  0.65154500  0.09422300  1
