# generated using pymatgen
data_Cu12Ni3C2
_symmetry_space_group_name_H-M   'P 1'
_cell_length_a   8.62799900
_cell_length_b   8.27805600
_cell_length_c   14.28180950
_cell_angle_alpha   55.20919151
_cell_angle_beta   90.00000000
_cell_angle_gamma   90.00000000
_symmetry_Int_Tables_number   1
_chemical_formula_structural   Cu12Ni3C2
_chemical_formula_sum   'Cu48 Ni12 C8'
_cell_volume   837.70705880
_cell_formula_units_Z   4
loop_
 _symmetry_equiv_pos_site_id
 _symmetry_equiv_pos_as_xyz
  1  'x, y, z'
loop_
 _atom_site_type_symbol
 _atom_site_label
 _atom_site_symmetry_multiplicity
 _atom_site_fract_x
 _atom_site_fract_y
 _atom_site_fract_z
 _atom_site_occupancy
  C  C0  1  0.96965100  0.36310200  0.88818300  1
  C  C1  1  0.46965100  0.63689800  0.61181700  1
  C  C2  1  0.03304000  0.86767700  0.38464000  1
  C  C3  1  0.53304000  0.13232300  0.11536000  1
  C  C4  1  0.46696000  0.86767700  0.88464000  1
  C  C5  1  0.96696000  0.13232300  0.61536000  1
  C  C6  1  0.53034900  0.36310200  0.38818300  1
  C  C7  1  0.03034900  0.63689800  0.11181700  1
  Ni  Ni8  1  0.75242600  0.54715300  0.49247000  1
  Ni  Ni9  1  0.61982700  0.25803000  0.84905500  1
  Ni  Ni10  1  0.88690000  0.96968400  0.14543800  1
  Ni  Ni11  1  0.11982700  0.74197000  0.65094500  1
  Ni  Ni12  1  0.38690000  0.03031600  0.35456200  1
  Ni  Ni13  1  0.25242600  0.45284700  0.00753000  1
  Ni  Ni14  1  0.74757400  0.54715300  0.99247000  1
  Ni  Ni15  1  0.61310000  0.96968400  0.64543800  1
  Ni  Ni16  1  0.88017300  0.25803000  0.34905500  1
  Ni  Ni17  1  0.11310000  0.03031600  0.85456200  1
  Ni  Ni18  1  0.38017300  0.74197000  0.15094500  1
  Ni  Ni19  1  0.24757400  0.45284700  0.50753000  1
  Cu  Cu20  1  0.12867400  0.60673300  0.44715800  1
  Cu  Cu21  1  0.11372900  0.15531400  0.89859300  1
  Cu  Cu22  1  0.32201300  0.45432500  0.60111900  1
  Cu  Cu23  1  0.42572900  0.87264600  0.18604600  1
  Cu  Cu24  1  0.63980300  0.51358700  0.58000600  1
  Cu  Cu25  1  0.78987700  0.28837900  0.83100700  1
  Cu  Cu26  1  0.58421100  0.16145500  0.97075500  1
  Cu  Cu27  1  0.99675300  0.88360900  0.24174500  1
  Cu  Cu28  1  0.73010600  0.97709000  0.18503600  1
  Cu  Cu29  1  0.82365300  0.74339600  0.44139800  1
  Cu  Cu30  1  0.53295100  0.44624100  0.78015400  1
  Cu  Cu31  1  0.03295100  0.55375900  0.71984600  1
  Cu  Cu32  1  0.93764600  0.17349500  0.05574600  1
  Cu  Cu33  1  0.43764600  0.82650500  0.44425400  1
  Cu  Cu34  1  0.32365300  0.25660400  0.05860200  1
  Cu  Cu35  1  0.23010600  0.02291000  0.31496400  1
  Cu  Cu36  1  0.08421100  0.83854500  0.52924500  1
  Cu  Cu37  1  0.49675300  0.11639100  0.25825500  1
  Cu  Cu38  1  0.28987700  0.71162100  0.66899300  1
  Cu  Cu39  1  0.13980300  0.48641300  0.91999400  1
  Cu  Cu40  1  0.82201300  0.54567500  0.89888100  1
  Cu  Cu41  1  0.61372900  0.84468600  0.60140700  1
  Cu  Cu42  1  0.92572900  0.12735400  0.31395400  1
  Cu  Cu43  1  0.62867400  0.39326700  0.05284200  1
  Cu  Cu44  1  0.37132600  0.60673300  0.94715800  1
  Cu  Cu45  1  0.07427100  0.87264600  0.68604600  1
  Cu  Cu46  1  0.38627100  0.15531400  0.39859300  1
  Cu  Cu47  1  0.17798700  0.45432500  0.10111900  1
  Cu  Cu48  1  0.86019700  0.51358700  0.08000600  1
  Cu  Cu49  1  0.71012300  0.28837900  0.33100700  1
  Cu  Cu50  1  0.50324700  0.88360900  0.74174500  1
  Cu  Cu51  1  0.91578900  0.16145500  0.47075500  1
  Cu  Cu52  1  0.76989400  0.97709000  0.68503600  1
  Cu  Cu53  1  0.67634700  0.74339600  0.94139800  1
  Cu  Cu54  1  0.56235400  0.17349500  0.55574600  1
  Cu  Cu55  1  0.06235400  0.82650500  0.94425400  1
  Cu  Cu56  1  0.96704900  0.44624100  0.28015400  1
  Cu  Cu57  1  0.46704900  0.55375900  0.21984600  1
  Cu  Cu58  1  0.17634700  0.25660400  0.55860200  1
  Cu  Cu59  1  0.26989400  0.02291000  0.81496400  1
  Cu  Cu60  1  0.00324700  0.11639100  0.75825500  1
  Cu  Cu61  1  0.41578900  0.83854500  0.02924500  1
  Cu  Cu62  1  0.21012300  0.71162100  0.16899300  1
  Cu  Cu63  1  0.36019700  0.48641300  0.41999400  1
  Cu  Cu64  1  0.57427100  0.12735400  0.81395400  1
  Cu  Cu65  1  0.67798700  0.54567500  0.39888100  1
  Cu  Cu66  1  0.88627100  0.84468600  0.10140700  1
  Cu  Cu67  1  0.87132600  0.39326700  0.55284200  1
