# generated using pymatgen
data_Cu3NiC2
_symmetry_space_group_name_H-M   'P 1'
_cell_length_a   4.73604800
_cell_length_b   5.71663500
_cell_length_c   10.39074868
_cell_angle_alpha   83.39828502
_cell_angle_beta   90.00000000
_cell_angle_gamma   90.00000000
_symmetry_Int_Tables_number   1
_chemical_formula_structural   Cu3NiC2
_chemical_formula_sum   'Cu12 Ni4 C8'
_cell_volume   279.45645452
_cell_formula_units_Z   4
loop_
 _symmetry_equiv_pos_site_id
 _symmetry_equiv_pos_as_xyz
  1  'x, y, z'
loop_
 _atom_site_type_symbol
 _atom_site_label
 _atom_site_symmetry_multiplicity
 _atom_site_fract_x
 _atom_site_fract_y
 _atom_site_fract_z
 _atom_site_occupancy
  C  C0  1  0.50000000  0.50000000  0.00000000  1
  C  C1  1  0.50000000  0.00000000  0.50000000  1
  C  C2  1  0.53123100  0.74109200  0.26890700  1
  C  C3  1  0.46876900  0.25890800  0.73109300  1
  C  C4  1  0.03123100  0.25890800  0.23109300  1
  C  C5  1  0.00000000  0.50000000  0.50000000  1
  C  C6  1  0.96876900  0.74109200  0.76890700  1
  C  C7  1  0.00000000  0.00000000  0.00000000  1
  Ni  Ni8  1  0.80019400  0.71889300  0.92470600  1
  Ni  Ni9  1  0.69980600  0.71889300  0.42470600  1
  Ni  Ni10  1  0.30019400  0.28110700  0.57529400  1
  Ni  Ni11  1  0.19980600  0.28110700  0.07529400  1
  Cu  Cu12  1  0.79965800  0.47821000  0.67925400  1
  Cu  Cu13  1  0.81473900  0.22426600  0.41194500  1
  Cu  Cu14  1  0.80094000  0.98451500  0.17587900  1
  Cu  Cu15  1  0.70034200  0.47821000  0.17925400  1
  Cu  Cu16  1  0.68526100  0.22426600  0.91194500  1
  Cu  Cu17  1  0.69906000  0.98451500  0.67587900  1
  Cu  Cu18  1  0.31473900  0.77573400  0.08805500  1
  Cu  Cu19  1  0.30094000  0.01548500  0.32412100  1
  Cu  Cu20  1  0.29965800  0.52179000  0.82074600  1
  Cu  Cu21  1  0.19906000  0.01548500  0.82412100  1
  Cu  Cu22  1  0.20034200  0.52179000  0.32074600  1
  Cu  Cu23  1  0.18526100  0.77573400  0.58805500  1
