# generated using pymatgen
data_Cu6NiC13
_symmetry_space_group_name_H-M   'P 1'
_cell_length_a   6.72287840
_cell_length_b   6.72287840
_cell_length_c   14.10299599
_cell_angle_alpha   75.33571709
_cell_angle_beta   75.33571709
_cell_angle_gamma   58.13258137
_symmetry_Int_Tables_number   1
_chemical_formula_structural   Cu6NiC13
_chemical_formula_sum   'Cu12 Ni2 C26'
_cell_volume   518.13552212
_cell_formula_units_Z   2
loop_
 _symmetry_equiv_pos_site_id
 _symmetry_equiv_pos_as_xyz
  1  'x, y, z'
loop_
 _atom_site_type_symbol
 _atom_site_label
 _atom_site_symmetry_multiplicity
 _atom_site_fract_x
 _atom_site_fract_y
 _atom_site_fract_z
 _atom_site_occupancy
  C  C0  1  0.13516400  0.56475900  0.14443200  1
  C  C1  1  0.43524100  0.86483600  0.35556800  1
  C  C2  1  0.86483600  0.43524100  0.85556800  1
  C  C3  1  0.56475900  0.13516400  0.64443200  1
  Ni  Ni4  1  0.00000000  0.50000000  0.50000000  1
  Ni  Ni5  1  0.50000000  0.00000000  0.00000000  1
  Cu  Cu6  1  0.88080700  0.92526100  0.43297100  1
  Cu  Cu7  1  0.07473900  0.11919300  0.06702900  1
  Cu  Cu8  1  0.11919300  0.07473900  0.56702900  1
  Cu  Cu9  1  0.92526100  0.88080700  0.93297100  1
  Cu  Cu10  1  0.94258700  0.37510600  0.36359600  1
  Cu  Cu11  1  0.62489400  0.05741300  0.13640400  1
  Cu  Cu12  1  0.05741300  0.62489400  0.63640400  1
  Cu  Cu13  1  0.37510600  0.94258700  0.86359600  1
  Cu  Cu14  1  0.37951100  0.40490600  0.39099200  1
  Cu  Cu15  1  0.59509400  0.62048900  0.10900800  1
  Cu  Cu16  1  0.62048900  0.59509400  0.60900800  1
  Cu  Cu17  1  0.40490600  0.37951100  0.89099200  1
  C  C18  1  0.77917000  0.22083000  0.25000000  1
  C  C19  1  0.22083000  0.77917000  0.75000000  1
  C  C20  1  0.71119800  0.48408400  0.55764600  1
  C  C21  1  0.51591600  0.28880200  0.94235400  1
  C  C22  1  0.28880200  0.51591600  0.44235400  1
  C  C23  1  0.48408400  0.71119800  0.05764600  1
  C  C24  1  0.06305400  0.47613700  0.63279700  1
  C  C25  1  0.52386300  0.93694600  0.86720300  1
  C  C26  1  0.93694600  0.52386300  0.36720300  1
  C  C27  1  0.47613700  0.06305400  0.13279700  1
  C  C28  1  0.81531200  0.84467200  0.49144200  1
  C  C29  1  0.15532800  0.18468800  0.00855800  1
  C  C30  1  0.18468800  0.15532800  0.50855800  1
  C  C31  1  0.84467200  0.81531200  0.99144200  1
  C  C32  1  0.51374100  0.24789600  0.29896100  1
  C  C33  1  0.75210400  0.48625900  0.20103900  1
  C  C34  1  0.48625900  0.75210400  0.70103900  1
  C  C35  1  0.24789600  0.51374100  0.79896100  1
  C  C36  1  0.89248900  0.04558600  0.16163700  1
  C  C37  1  0.95441400  0.10751100  0.33836300  1
  C  C38  1  0.10751100  0.95441400  0.83836300  1
  C  C39  1  0.04558600  0.89248900  0.66163700  1
