# generated using pymatgen
data_Cu3NiC10
_symmetry_space_group_name_H-M   'P 1'
_cell_length_a   6.01159749
_cell_length_b   6.01159749
_cell_length_c   9.76651900
_cell_angle_alpha   90.00000000
_cell_angle_beta   90.00000000
_cell_angle_gamma   119.99999442
_symmetry_Int_Tables_number   1
_chemical_formula_structural   Cu3NiC10
_chemical_formula_sum   'Cu6 Ni2 C20'
_cell_volume   305.66818960
_cell_formula_units_Z   2
loop_
 _symmetry_equiv_pos_site_id
 _symmetry_equiv_pos_as_xyz
  1  'x, y, z'
loop_
 _atom_site_type_symbol
 _atom_site_label
 _atom_site_symmetry_multiplicity
 _atom_site_fract_x
 _atom_site_fract_y
 _atom_site_fract_z
 _atom_site_occupancy
  C  C0  1  0.33333300  0.66666700  0.89894200  1
  C  C1  1  0.00000000  0.00000000  0.99287000  1
  C  C2  1  0.00000000  0.00000000  0.49287000  1
  C  C3  1  0.66666700  0.33333300  0.39894200  1
  Ni  Ni4  1  0.33333300  0.66666700  0.49088500  1
  Ni  Ni5  1  0.66666700  0.33333300  0.99088500  1
  Cu  Cu6  1  0.17052700  0.82947300  0.21502500  1
  Cu  Cu7  1  0.17052700  0.34105400  0.21502500  1
  Cu  Cu8  1  0.65894600  0.82947300  0.21502500  1
  Cu  Cu9  1  0.34105400  0.17052700  0.71502500  1
  Cu  Cu10  1  0.82947300  0.65894600  0.71502500  1
  Cu  Cu11  1  0.82947300  0.17052700  0.71502500  1
  C  C12  1  0.16790800  0.83209200  0.59248200  1
  C  C13  1  0.03794900  0.51897400  0.34410800  1
  C  C14  1  0.33333300  0.66666700  0.10780400  1
  C  C15  1  0.00000000  0.00000000  0.30856900  1
  C  C16  1  0.00000000  0.00000000  0.80856900  1
  C  C17  1  0.16790800  0.33581600  0.59248200  1
  C  C18  1  0.48102600  0.96205100  0.34410800  1
  C  C19  1  0.48102600  0.51897400  0.34410800  1
  C  C20  1  0.33581600  0.16790800  0.09248200  1
  C  C21  1  0.66418400  0.83209200  0.59248200  1
  C  C22  1  0.51897400  0.48102600  0.84410800  1
  C  C23  1  0.51897400  0.03794900  0.84410800  1
  C  C24  1  0.66666700  0.33333300  0.60780400  1
  C  C25  1  0.83209200  0.66418400  0.09248200  1
  C  C26  1  0.96205100  0.48102600  0.84410800  1
  C  C27  1  0.83209200  0.16790800  0.09248200  1
