# generated using pymatgen
data_Cu4NiC2
_symmetry_space_group_name_H-M   'P 1'
_cell_length_a   5.45725700
_cell_length_b   11.05455700
_cell_length_c   17.73473400
_cell_angle_alpha   90.00000000
_cell_angle_beta   90.00000000
_cell_angle_gamma   90.00000000
_symmetry_Int_Tables_number   1
_chemical_formula_structural   Cu4NiC2
_chemical_formula_sum   'Cu48 Ni12 C24'
_cell_volume   1069.89320411
_cell_formula_units_Z   12
loop_
 _symmetry_equiv_pos_site_id
 _symmetry_equiv_pos_as_xyz
  1  'x, y, z'
loop_
 _atom_site_type_symbol
 _atom_site_label
 _atom_site_symmetry_multiplicity
 _atom_site_fract_x
 _atom_site_fract_y
 _atom_site_fract_z
 _atom_site_occupancy
  C  C0  1  0.22920600  0.48274900  0.59669900  1
  C  C1  1  0.27079400  0.48274900  0.90330100  1
  C  C2  1  0.77079400  0.01725100  0.09669900  1
  C  C3  1  0.72920600  0.01725100  0.40330100  1
  C  C4  1  0.77079400  0.51725100  0.40330100  1
  C  C5  1  0.72920600  0.51725100  0.09669900  1
  C  C6  1  0.22920600  0.98274900  0.90330100  1
  C  C7  1  0.27079400  0.98274900  0.59669900  1
  C  C8  1  0.11110700  0.18931700  0.44240700  1
  C  C9  1  0.38889300  0.18931700  0.05759300  1
  C  C10  1  0.88889300  0.31068300  0.94240700  1
  C  C11  1  0.61110700  0.31068300  0.55759300  1
  C  C12  1  0.88889300  0.81068300  0.55759300  1
  C  C13  1  0.61110700  0.81068300  0.94240700  1
  C  C14  1  0.11110700  0.68931700  0.05759300  1
  C  C15  1  0.38889300  0.68931700  0.44240700  1
  C  C16  1  0.50889800  0.32682500  0.30270000  1
  C  C17  1  0.99110200  0.32682500  0.19730000  1
  C  C18  1  0.49110200  0.17317500  0.80270000  1
  C  C19  1  0.00889800  0.17317500  0.69730000  1
  C  C20  1  0.49110200  0.67317500  0.69730000  1
  C  C21  1  0.00889800  0.67317500  0.80270000  1
  C  C22  1  0.50889800  0.82682500  0.19730000  1
  C  C23  1  0.99110200  0.82682500  0.30270000  1
  Ni  Ni24  1  0.29161700  0.36255900  0.43479400  1
  Ni  Ni25  1  0.20838300  0.36255900  0.06520600  1
  Ni  Ni26  1  0.70838300  0.13744100  0.93479400  1
  Ni  Ni27  1  0.79161700  0.13744100  0.56520600  1
  Ni  Ni28  1  0.70838300  0.63744100  0.56520600  1
  Ni  Ni29  1  0.79161700  0.63744100  0.93479400  1
  Ni  Ni30  1  0.29161700  0.86255900  0.06520600  1
  Ni  Ni31  1  0.20838300  0.86255900  0.43479400  1
  Ni  Ni32  1  0.25000000  0.30312000  0.75000000  1
  Ni  Ni33  1  0.75000000  0.19688000  0.25000000  1
  Ni  Ni34  1  0.75000000  0.69688000  0.25000000  1
  Ni  Ni35  1  0.25000000  0.80312000  0.75000000  1
  Cu  Cu36  1  0.36505500  0.37890000  0.51445900  1
  Cu  Cu37  1  0.13494500  0.37890000  0.98554100  1
  Cu  Cu38  1  0.63494500  0.12110000  0.01445900  1
  Cu  Cu39  1  0.86505500  0.12110000  0.48554100  1
  Cu  Cu40  1  0.63494500  0.62110000  0.48554100  1
  Cu  Cu41  1  0.86505500  0.62110000  0.01445900  1
  Cu  Cu42  1  0.36505500  0.87890000  0.98554100  1
  Cu  Cu43  1  0.13494500  0.87890000  0.51445900  1
  Cu  Cu44  1  0.49341300  0.39625300  0.38340200  1
  Cu  Cu45  1  0.00658700  0.39625300  0.11659800  1
  Cu  Cu46  1  0.50658700  0.10374700  0.88340200  1
  Cu  Cu47  1  0.99341300  0.10374700  0.61659800  1
  Cu  Cu48  1  0.50658700  0.60374700  0.61659800  1
  Cu  Cu49  1  0.99341300  0.60374700  0.88340200  1
  Cu  Cu50  1  0.49341300  0.89625300  0.11659800  1
  Cu  Cu51  1  0.00658700  0.89625300  0.38340200  1
  Cu  Cu52  1  0.06050200  0.42135500  0.41798900  1
  Cu  Cu53  1  0.43949800  0.42135500  0.08201100  1
  Cu  Cu54  1  0.93949800  0.07864500  0.91798900  1
  Cu  Cu55  1  0.56050200  0.07864500  0.58201100  1
  Cu  Cu56  1  0.93949800  0.57864500  0.58201100  1
  Cu  Cu57  1  0.56050200  0.57864500  0.91798900  1
  Cu  Cu58  1  0.06050200  0.92135500  0.08201100  1
  Cu  Cu59  1  0.43949800  0.92135500  0.41798900  1
  Cu  Cu60  1  0.26581900  0.22271100  0.41949500  1
  Cu  Cu61  1  0.23418100  0.22271100  0.08050500  1
  Cu  Cu62  1  0.73418100  0.27728900  0.91949500  1
  Cu  Cu63  1  0.76581900  0.27728900  0.58050500  1
  Cu  Cu64  1  0.73418100  0.77728900  0.58050500  1
  Cu  Cu65  1  0.76581900  0.77728900  0.91949500  1
  Cu  Cu66  1  0.26581900  0.72271100  0.08050500  1
  Cu  Cu67  1  0.23418100  0.72271100  0.41949500  1
  Cu  Cu68  1  0.27114600  0.36966200  0.68082000  1
  Cu  Cu69  1  0.22885400  0.36966200  0.81918000  1
  Cu  Cu70  1  0.72885400  0.13033800  0.18082000  1
  Cu  Cu71  1  0.77114600  0.13033800  0.31918000  1
  Cu  Cu72  1  0.72885400  0.63033800  0.31918000  1
  Cu  Cu73  1  0.77114600  0.63033800  0.18082000  1
  Cu  Cu74  1  0.27114600  0.86966200  0.81918000  1
  Cu  Cu75  1  0.22885400  0.86966200  0.68082000  1
  Cu  Cu76  1  0.02382600  0.21734000  0.74771300  1
  Cu  Cu77  1  0.47617400  0.21734000  0.75228700  1
  Cu  Cu78  1  0.97617400  0.28266000  0.24771300  1
  Cu  Cu79  1  0.52382600  0.28266000  0.25228700  1
  Cu  Cu80  1  0.97617400  0.78266000  0.25228700  1
  Cu  Cu81  1  0.52382600  0.78266000  0.24771300  1
  Cu  Cu82  1  0.02382600  0.71734000  0.75228700  1
  Cu  Cu83  1  0.47617400  0.71734000  0.74771300  1
