# generated using pymatgen
data_Cu2Ni2C7
_symmetry_space_group_name_H-M   'P 1'
_cell_length_a   5.99668685
_cell_length_b   5.99668685
_cell_length_c   9.53555640
_cell_angle_alpha   84.13275681
_cell_angle_beta   84.13275681
_cell_angle_gamma   107.58219705
_symmetry_Int_Tables_number   1
_chemical_formula_structural   Cu2Ni2C7
_chemical_formula_sum   'Cu4 Ni4 C14'
_cell_volume   321.95080684
_cell_formula_units_Z   2
loop_
 _symmetry_equiv_pos_site_id
 _symmetry_equiv_pos_as_xyz
  1  'x, y, z'
loop_
 _atom_site_type_symbol
 _atom_site_label
 _atom_site_symmetry_multiplicity
 _atom_site_fract_x
 _atom_site_fract_y
 _atom_site_fract_z
 _atom_site_occupancy
  Ni  Ni0  1  0.69363600  0.30813600  0.00552400  1
  Ni  Ni1  1  0.69186400  0.30636400  0.49447600  1
  Ni  Ni2  1  0.30813600  0.69363600  0.50552400  1
  Ni  Ni3  1  0.30636400  0.69186400  0.99447600  1
  Cu  Cu4  1  0.82074300  0.77471000  0.71505000  1
  Cu  Cu5  1  0.77471000  0.82074300  0.21505000  1
  Cu  Cu6  1  0.22529000  0.17925700  0.78495000  1
  Cu  Cu7  1  0.17925700  0.22529000  0.28495000  1
  C  C8  1  0.71250800  0.94978500  0.64745400  1
  C  C9  1  0.87809800  0.60222700  0.61675100  1
  C  C10  1  0.67546400  0.63857500  0.85808300  1
  C  C11  1  0.94978500  0.71250800  0.14745400  1
  C  C12  1  0.08515800  0.91484200  0.75000000  1
  C  C13  1  0.60222700  0.87809800  0.11675100  1
  C  C14  1  0.63857500  0.67546400  0.35808300  1
  C  C15  1  0.36142500  0.32453600  0.64191700  1
  C  C16  1  0.39777300  0.12190200  0.88324900  1
  C  C17  1  0.91484200  0.08515800  0.25000000  1
  C  C18  1  0.05021500  0.28749200  0.85254600  1
  C  C19  1  0.32453600  0.36142500  0.14191700  1
  C  C20  1  0.12190200  0.39777300  0.38324900  1
  C  C21  1  0.28749200  0.05021500  0.35254600  1
