# generated using pymatgen
data_Cu6Ni2C
_symmetry_space_group_name_H-M   'P 1'
_cell_length_a   4.78512593
_cell_length_b   22.62364172
_cell_length_c   4.78662276
_cell_angle_alpha   83.99033653
_cell_angle_beta   60.00636650
_cell_angle_gamma   83.92127153
_symmetry_Int_Tables_number   1
_chemical_formula_structural   Cu6Ni2C
_chemical_formula_sum   'Cu24 Ni8 C4'
_cell_volume   445.46032380
_cell_formula_units_Z   4
loop_
 _symmetry_equiv_pos_site_id
 _symmetry_equiv_pos_as_xyz
  1  'x, y, z'
loop_
 _atom_site_type_symbol
 _atom_site_label
 _atom_site_symmetry_multiplicity
 _atom_site_fract_x
 _atom_site_fract_y
 _atom_site_fract_z
 _atom_site_occupancy
  C  C0  1  0.12502300  0.62491100  0.12472300  1
  C  C1  1  0.37502100  0.87462400  0.37555500  1
  C  C2  1  0.62478500  0.12535300  0.62485000  1
  C  C3  1  0.87511300  0.37507700  0.87503000  1
  Ni  Ni4  1  0.94102300  0.17645000  0.94136500  1
  Ni  Ni5  1  0.19126100  0.42616500  0.19156800  1
  Ni  Ni6  1  0.44126800  0.67604100  0.44128500  1
  Ni  Ni7  1  0.69125200  0.92588700  0.69193600  1
  Ni  Ni8  1  0.30863100  0.07421400  0.30829500  1
  Ni  Ni9  1  0.55887400  0.32396100  0.55844300  1
  Ni  Ni10  1  0.80885300  0.57378500  0.80819600  1
  Ni  Ni11  1  0.05894200  0.82351000  0.05890300  1
  Cu  Cu12  1  0.55629200  0.07371900  0.34713400  1
  Cu  Cu13  1  0.80669300  0.32346300  0.59713600  1
  Cu  Cu14  1  0.05653400  0.57329900  0.84709100  1
  Cu  Cu15  1  0.30675600  0.82306400  0.09737700  1
  Cu  Cu16  1  0.90224600  0.17694100  0.22728200  1
  Cu  Cu17  1  0.15258000  0.42665200  0.47739900  1
  Cu  Cu18  1  0.40259500  0.67650000  0.72708700  1
  Cu  Cu19  1  0.65244400  0.92631800  0.97775800  1
  Cu  Cu20  1  0.22694400  0.17694400  0.69377000  1
  Cu  Cu21  1  0.47715400  0.42665000  0.94391200  1
  Cu  Cu22  1  0.72708500  0.67650200  0.19368800  1
  Cu  Cu23  1  0.97711200  0.92631800  0.44436800  1
  Cu  Cu24  1  0.02273800  0.07373500  0.55582500  1
  Cu  Cu25  1  0.27299800  0.32347600  0.80615000  1
  Cu  Cu26  1  0.52287100  0.57331200  0.05575300  1
  Cu  Cu27  1  0.77312000  0.82308100  0.30656300  1
  Cu  Cu28  1  0.34743300  0.07372600  0.02245100  1
  Cu  Cu29  1  0.59750300  0.32347500  0.27262100  1
  Cu  Cu30  1  0.84770000  0.57331200  0.52226800  1
  Cu  Cu31  1  0.09737900  0.82306500  0.77310800  1
  Cu  Cu32  1  0.69325100  0.17695600  0.90258000  1
  Cu  Cu33  1  0.94348100  0.42666200  0.15284500  1
  Cu  Cu34  1  0.19351800  0.67650700  0.40259000  1
  Cu  Cu35  1  0.44352800  0.92634400  0.65309700  1
