# generated using pymatgen
data_CuNiC6
_symmetry_space_group_name_H-M   'P 1'
_cell_length_a   4.98509500
_cell_length_b   6.35900100
_cell_length_c   10.74494200
_cell_angle_alpha   90.00000000
_cell_angle_beta   90.00000000
_cell_angle_gamma   90.00000000
_symmetry_Int_Tables_number   1
_chemical_formula_structural   CuNiC6
_chemical_formula_sum   'Cu4 Ni4 C24'
_cell_volume   340.61706924
_cell_formula_units_Z   4
loop_
 _symmetry_equiv_pos_site_id
 _symmetry_equiv_pos_as_xyz
  1  'x, y, z'
loop_
 _atom_site_type_symbol
 _atom_site_label
 _atom_site_symmetry_multiplicity
 _atom_site_fract_x
 _atom_site_fract_y
 _atom_site_fract_z
 _atom_site_occupancy
  C  C0  1  0.75599200  0.00434200  0.16498600  1
  C  C1  1  0.75593300  0.24431800  0.91740300  1
  C  C2  1  0.75593300  0.25568200  0.41740300  1
  C  C3  1  0.75599200  0.49565800  0.66498600  1
  C  C4  1  0.25599200  0.50434200  0.33501400  1
  C  C5  1  0.25593300  0.74431800  0.58259700  1
  C  C6  1  0.25593300  0.75568200  0.08259700  1
  C  C7  1  0.25599200  0.99565800  0.83501400  1
  Ni  Ni8  1  0.26138000  0.00732900  0.33389500  1
  Ni  Ni9  1  0.26138000  0.49267100  0.83389500  1
  Ni  Ni10  1  0.76138000  0.50732900  0.16610500  1
  Ni  Ni11  1  0.76138000  0.99267100  0.66610500  1
  Cu  Cu12  1  0.25964200  0.24265100  0.58581100  1
  Cu  Cu13  1  0.25964200  0.25734900  0.08581100  1
  Cu  Cu14  1  0.75964200  0.74265100  0.91418900  1
  Cu  Cu15  1  0.75964200  0.75734900  0.41418900  1
  C  C16  1  0.11966200  0.00648500  0.66308100  1
  C  C17  1  0.15650800  0.01933000  0.17487300  1
  C  C18  1  0.15980500  0.26305000  0.91867000  1
  C  C19  1  0.63422600  0.22529100  0.59466400  1
  C  C20  1  0.63422600  0.27470900  0.09466400  1
  C  C21  1  0.15980500  0.23695000  0.41867000  1
  C  C22  1  0.15650800  0.48067000  0.67487300  1
  C  C23  1  0.11966200  0.49351500  0.16308100  1
  C  C24  1  0.61966200  0.50648500  0.83691900  1
  C  C25  1  0.65650800  0.51933000  0.32512700  1
  C  C26  1  0.65980500  0.76305000  0.58133000  1
  C  C27  1  0.13422600  0.72529100  0.90533600  1
  C  C28  1  0.13422600  0.77470900  0.40533600  1
  C  C29  1  0.65980500  0.73695000  0.08133000  1
  C  C30  1  0.65650800  0.98067000  0.82512700  1
  C  C31  1  0.61966200  0.99351500  0.33691900  1
