# generated using pymatgen
data_CuNiC4
_symmetry_space_group_name_H-M   'P 1'
_cell_length_a   5.46903400
_cell_length_b   4.33764600
_cell_length_c   4.88995107
_cell_angle_alpha   87.33011351
_cell_angle_beta   90.00000000
_cell_angle_gamma   90.00000000
_symmetry_Int_Tables_number   1
_chemical_formula_structural   CuNiC4
_chemical_formula_sum   'Cu2 Ni2 C8'
_cell_volume   115.87708391
_cell_formula_units_Z   2
loop_
 _symmetry_equiv_pos_site_id
 _symmetry_equiv_pos_as_xyz
  1  'x, y, z'
loop_
 _atom_site_type_symbol
 _atom_site_label
 _atom_site_symmetry_multiplicity
 _atom_site_fract_x
 _atom_site_fract_y
 _atom_site_fract_z
 _atom_site_occupancy
  Ni  Ni0  1  0.15506900  0.00000000  0.75000000  1
  Ni  Ni1  1  0.84493100  0.00000000  0.25000000  1
  Cu  Cu2  1  0.63903900  0.50000000  0.75000000  1
  Cu  Cu3  1  0.36096100  0.50000000  0.25000000  1
  C  C4  1  0.87618300  0.24378000  0.91003800  1
  C  C5  1  0.39206300  0.27502600  0.92984500  1
  C  C6  1  0.39206300  0.72497400  0.57015500  1
  C  C7  1  0.87618300  0.75622000  0.58996200  1
  C  C8  1  0.12381700  0.24378000  0.41003800  1
  C  C9  1  0.60793700  0.27502600  0.42984500  1
  C  C10  1  0.60793700  0.72497400  0.07015500  1
  C  C11  1  0.12381700  0.75622000  0.08996200  1
