# generated using pymatgen
data_Cu3NiC12
_symmetry_space_group_name_H-M   'P 1'
_cell_length_a   6.06040197
_cell_length_b   6.06040197
_cell_length_c   6.08297112
_cell_angle_alpha   60.34504570
_cell_angle_beta   60.34504570
_cell_angle_gamma   60.37160325
_symmetry_Int_Tables_number   1
_chemical_formula_structural   Cu3NiC12
_chemical_formula_sum   'Cu3 Ni1 C12'
_cell_volume   159.24526455
_cell_formula_units_Z   1
loop_
 _symmetry_equiv_pos_site_id
 _symmetry_equiv_pos_as_xyz
  1  'x, y, z'
loop_
 _atom_site_type_symbol
 _atom_site_label
 _atom_site_symmetry_multiplicity
 _atom_site_fract_x
 _atom_site_fract_y
 _atom_site_fract_z
 _atom_site_occupancy
  C  C0  1  0.50000000  0.50000000  0.00000000  1
  C  C1  1  0.00000000  0.50000000  0.50000000  1
  C  C2  1  0.00000000  0.00000000  0.00000000  1
  C  C3  1  0.50000000  0.00000000  0.50000000  1
  Ni  Ni4  1  0.00000000  0.00000000  0.50000000  1
  Cu  Cu5  1  0.50000000  0.00000000  0.00000000  1
  Cu  Cu6  1  0.50000000  0.50000000  0.50000000  1
  Cu  Cu7  1  0.00000000  0.50000000  0.00000000  1
  C  C8  1  0.26550800  0.26550800  0.75234300  1
  C  C9  1  0.75063600  0.23863100  0.27340200  1
  C  C10  1  0.76487900  0.76487900  0.72722600  1
  C  C11  1  0.73449200  0.73449200  0.24765700  1
  C  C12  1  0.23863100  0.75063600  0.27340200  1
  C  C13  1  0.24936400  0.76136900  0.72659800  1
  C  C14  1  0.23512100  0.23512100  0.27277400  1
  C  C15  1  0.76136900  0.24936400  0.72659800  1
