# generated using pymatgen
data_CuNiC3
_symmetry_space_group_name_H-M   'P 1'
_cell_length_a   6.10901509
_cell_length_b   6.10901509
_cell_length_c   12.11425500
_cell_angle_alpha   90.00000000
_cell_angle_beta   90.00000000
_cell_angle_gamma   119.99999017
_symmetry_Int_Tables_number   1
_chemical_formula_structural   CuNiC3
_chemical_formula_sum   'Cu6 Ni6 C18'
_cell_volume   391.53427110
_cell_formula_units_Z   6
loop_
 _symmetry_equiv_pos_site_id
 _symmetry_equiv_pos_as_xyz
  1  'x, y, z'
loop_
 _atom_site_type_symbol
 _atom_site_label
 _atom_site_symmetry_multiplicity
 _atom_site_fract_x
 _atom_site_fract_y
 _atom_site_fract_z
 _atom_site_occupancy
  Ni  Ni0  1  0.33333300  0.66666700  0.23265400  1
  Ni  Ni1  1  0.00000000  0.00000000  0.27083800  1
  Ni  Ni2  1  0.00000000  0.00000000  0.77083800  1
  Ni  Ni3  1  0.33333300  0.66666700  0.73265400  1
  Ni  Ni4  1  0.66666700  0.33333300  0.73265400  1
  Ni  Ni5  1  0.66666700  0.33333300  0.23265400  1
  Cu  Cu6  1  0.00000000  0.66655500  0.49871600  1
  Cu  Cu7  1  0.00000000  0.33344500  0.99871600  1
  Cu  Cu8  1  0.33344500  0.33344500  0.49871600  1
  Cu  Cu9  1  0.66655500  0.66655500  0.99871600  1
  Cu  Cu10  1  0.33344500  0.00000000  0.99871600  1
  Cu  Cu11  1  0.66655500  0.00000000  0.49871600  1
  C  C12  1  0.00000000  0.69372600  0.66904000  1
  C  C13  1  0.00000000  0.63869800  0.33012300  1
  C  C14  1  0.00000000  0.36130200  0.83012300  1
  C  C15  1  0.00000000  0.30627400  0.16904000  1
  C  C16  1  0.33333300  0.66666700  0.02178500  1
  C  C17  1  0.00000000  0.00000000  0.46992000  1
  C  C18  1  0.00000000  0.00000000  0.96992000  1
  C  C19  1  0.33333300  0.66666700  0.52178500  1
  C  C20  1  0.30627400  0.30627400  0.66904000  1
  C  C21  1  0.36130200  0.36130200  0.33012300  1
  C  C22  1  0.30627400  0.00000000  0.16904000  1
  C  C23  1  0.63869800  0.63869800  0.83012300  1
  C  C24  1  0.69372600  0.69372600  0.16904000  1
  C  C25  1  0.36130200  0.00000000  0.83012300  1
  C  C26  1  0.66666700  0.33333300  0.52178500  1
  C  C27  1  0.66666700  0.33333300  0.02178500  1
  C  C28  1  0.63869800  0.00000000  0.33012300  1
  C  C29  1  0.69372600  0.00000000  0.66904000  1
