# generated using pymatgen
data_Cu11NiC7
_symmetry_space_group_name_H-M   'P 1'
_cell_length_a   5.25273100
_cell_length_b   5.46019680
_cell_length_c   16.18088969
_cell_angle_alpha   99.58871736
_cell_angle_beta   89.87235206
_cell_angle_gamma   91.35676010
_symmetry_Int_Tables_number   1
_chemical_formula_structural   Cu11NiC7
_chemical_formula_sum   'Cu22 Ni2 C14'
_cell_volume   457.47045060
_cell_formula_units_Z   2
loop_
 _symmetry_equiv_pos_site_id
 _symmetry_equiv_pos_as_xyz
  1  'x, y, z'
loop_
 _atom_site_type_symbol
 _atom_site_label
 _atom_site_symmetry_multiplicity
 _atom_site_fract_x
 _atom_site_fract_y
 _atom_site_fract_z
 _atom_site_occupancy
  C  C0  1  0.67535900  0.19595400  0.84274000  1
  C  C1  1  0.46570800  0.23214700  0.56761700  1
  C  C2  1  0.03237400  0.04182700  0.21488100  1
  C  C3  1  0.51435500  0.14560600  0.10761500  1
  C  C4  1  0.19770900  0.64355300  0.81909400  1
  C  C5  1  0.01131300  0.70366100  0.56373500  1
  C  C6  1  0.53822900  0.78512600  0.45050300  1
  C  C7  1  0.97860200  0.57839900  0.09627200  1
  C  C8  1  0.98590600  0.30007900  0.66347900  1
  C  C9  1  0.50503300  0.17074500  0.33562900  1
  C  C10  1  0.48451700  0.49954800  0.00096500  1
  C  C11  1  0.01575600  0.02058900  0.99868500  1
  C  C12  1  0.51874500  0.83775700  0.66701700  1
  C  C13  1  0.00478900  0.66005200  0.33176600  1
  Ni  Ni14  1  0.81273300  0.99388200  0.62867800  1
  Ni  Ni15  1  0.19507400  0.32403400  0.03440000  1
  Cu  Cu16  1  0.68697100  0.17916400  0.96483100  1
  Cu  Cu17  1  0.33180000  0.16255000  0.68598000  1
  Cu  Cu18  1  0.86373000  0.02936700  0.11593100  1
  Cu  Cu19  1  0.59097000  0.16268100  0.45020100  1
  Cu  Cu20  1  0.91587800  0.37354300  0.78245200  1
  Cu  Cu21  1  0.38009000  0.15181900  0.22285700  1
  Cu  Cu22  1  0.42107600  0.47130900  0.88124500  1
  Cu  Cu23  1  0.12704200  0.34416200  0.55419300  1
  Cu  Cu24  1  0.84169300  0.32656200  0.29957900  1
  Cu  Cu25  1  0.68538300  0.49945300  0.62603900  1
  Cu  Cu26  1  0.82280900  0.68323500  0.98703400  1
  Cu  Cu27  1  0.33973200  0.50130800  0.36527800  1
  Cu  Cu28  1  0.18911000  0.64967500  0.69379000  1
  Cu  Cu29  1  0.63338500  0.49448100  0.11392000  1
  Cu  Cu30  1  0.88005500  0.67535300  0.44464300  1
  Cu  Cu31  1  0.58761100  0.87348200  0.78437000  1
  Cu  Cu32  1  0.09619400  0.94342300  0.88320000  1
  Cu  Cu33  1  0.08963600  0.68150700  0.21774700  1
  Cu  Cu34  1  0.36108900  0.81548200  0.54961400  1
  Cu  Cu35  1  0.68241100  0.85094000  0.31051900  1
  Cu  Cu36  1  0.31566400  0.83709200  0.04362000  1
  Cu  Cu37  1  0.18127400  0.98424000  0.36065000  1
