# generated using pymatgen
data_CuNiC5
_symmetry_space_group_name_H-M   'P 1'
_cell_length_a   5.07610900
_cell_length_b   6.34547700
_cell_length_c   10.75497600
_cell_angle_alpha   90.00000000
_cell_angle_beta   90.00000000
_cell_angle_gamma   90.00000000
_symmetry_Int_Tables_number   1
_chemical_formula_structural   CuNiC5
_chemical_formula_sum   'Cu4 Ni4 C20'
_cell_volume   346.42135739
_cell_formula_units_Z   4
loop_
 _symmetry_equiv_pos_site_id
 _symmetry_equiv_pos_as_xyz
  1  'x, y, z'
loop_
 _atom_site_type_symbol
 _atom_site_label
 _atom_site_symmetry_multiplicity
 _atom_site_fract_x
 _atom_site_fract_y
 _atom_site_fract_z
 _atom_site_occupancy
  C  C0  1  0.75956500  0.00739200  0.16780900  1
  C  C1  1  0.75956500  0.49260800  0.66780900  1
  C  C2  1  0.25956500  0.50739200  0.33219100  1
  C  C3  1  0.25956500  0.99260800  0.83219100  1
  Ni  Ni4  1  0.25941800  0.23550500  0.58669400  1
  Ni  Ni5  1  0.25941800  0.26449500  0.08669400  1
  Ni  Ni6  1  0.75941800  0.73550500  0.91330600  1
  Ni  Ni7  1  0.75941800  0.76449500  0.41330600  1
  Cu  Cu8  1  0.26314500  0.00931300  0.33219300  1
  Cu  Cu9  1  0.26314500  0.49068700  0.83219300  1
  Cu  Cu10  1  0.76314500  0.50931300  0.16780700  1
  Cu  Cu11  1  0.76314500  0.99068700  0.66780700  1
  C  C12  1  0.15169100  0.04337400  0.18915800  1
  C  C13  1  0.58456000  0.97860200  0.32855800  1
  C  C14  1  0.62578700  0.20649700  0.61225500  1
  C  C15  1  0.20217400  0.22283000  0.41641300  1
  C  C16  1  0.20217400  0.27717000  0.91641300  1
  C  C17  1  0.62578700  0.29350300  0.11225500  1
  C  C18  1  0.58456000  0.52139800  0.82855800  1
  C  C19  1  0.15169100  0.45662600  0.68915800  1
  C  C20  1  0.65169100  0.54337400  0.31084200  1
  C  C21  1  0.08456000  0.47860200  0.17144200  1
  C  C22  1  0.12578700  0.70649700  0.88774500  1
  C  C23  1  0.70217400  0.72283000  0.08358700  1
  C  C24  1  0.70217400  0.77717000  0.58358700  1
  C  C25  1  0.12578700  0.79350300  0.38774500  1
  C  C26  1  0.08456000  0.02139800  0.67144200  1
  C  C27  1  0.65169100  0.95662600  0.81084200  1
