# generated using pymatgen
data_Cu2NiC5
_symmetry_space_group_name_H-M   'P 1'
_cell_length_a   6.53382700
_cell_length_b   8.36102100
_cell_length_c   9.42381534
_cell_angle_alpha   67.44241233
_cell_angle_beta   90.00000000
_cell_angle_gamma   90.00000000
_symmetry_Int_Tables_number   1
_chemical_formula_structural   Cu2NiC5
_chemical_formula_sum   'Cu8 Ni4 C20'
_cell_volume   475.43154570
_cell_formula_units_Z   4
loop_
 _symmetry_equiv_pos_site_id
 _symmetry_equiv_pos_as_xyz
  1  'x, y, z'
loop_
 _atom_site_type_symbol
 _atom_site_label
 _atom_site_symmetry_multiplicity
 _atom_site_fract_x
 _atom_site_fract_y
 _atom_site_fract_z
 _atom_site_occupancy
  C  C0  1  0.23702200  0.74278600  0.77914800  1
  C  C1  1  0.73702200  0.25721400  0.72085200  1
  C  C2  1  0.76297800  0.25721400  0.22085200  1
  C  C3  1  0.26297800  0.74278600  0.27914800  1
  Ni  Ni4  1  0.29110500  0.26798600  0.98633400  1
  Ni  Ni5  1  0.79110500  0.73201400  0.51366600  1
  Ni  Ni6  1  0.70889500  0.73201400  0.01366600  1
  Ni  Ni7  1  0.20889500  0.26798600  0.48633400  1
  Cu  Cu8  1  0.92258500  0.93863000  0.96237100  1
  Cu  Cu9  1  0.42258500  0.06137000  0.53762900  1
  Cu  Cu10  1  0.07741500  0.06137000  0.03762900  1
  Cu  Cu11  1  0.57741500  0.93863000  0.46237100  1
  Cu  Cu12  1  0.78359700  0.61574100  0.83970300  1
  Cu  Cu13  1  0.28359700  0.38425900  0.66029700  1
  Cu  Cu14  1  0.21640300  0.38425900  0.16029700  1
  Cu  Cu15  1  0.71640300  0.61574100  0.33970300  1
  C  C16  1  0.75261100  0.58076400  0.95474800  1
  C  C17  1  0.25261100  0.41923600  0.54525200  1
  C  C18  1  0.24738900  0.41923600  0.04525200  1
  C  C19  1  0.74738900  0.58076400  0.45474800  1
  C  C20  1  0.91823600  0.87646600  0.40449100  1
  C  C21  1  0.41823600  0.12353400  0.09550900  1
  C  C22  1  0.08176400  0.12353400  0.59550900  1
  C  C23  1  0.58176400  0.87646600  0.90449100  1
  C  C24  1  0.64233400  0.64114000  0.17955100  1
  C  C25  1  0.14233400  0.35886000  0.32044900  1
  C  C26  1  0.35766600  0.35886000  0.82044900  1
  C  C27  1  0.85766600  0.64114000  0.67955100  1
  C  C28  1  0.55800100  0.81400400  0.51435100  1
  C  C29  1  0.05800100  0.18599600  0.98564900  1
  C  C30  1  0.44199900  0.18599600  0.48564900  1
  C  C31  1  0.94199900  0.81400400  0.01435100  1
