# generated using pymatgen
data_Cu9Ni3C26
_symmetry_space_group_name_H-M   'P 1'
_cell_length_a   7.75798244
_cell_length_b   7.75798244
_cell_length_c   18.32330700
_cell_angle_alpha   90.00000000
_cell_angle_beta   90.00000000
_cell_angle_gamma   120.00000374
_symmetry_Int_Tables_number   1
_chemical_formula_structural   Cu9Ni3C26
_chemical_formula_sum   'Cu18 Ni6 C52'
_cell_volume   955.06308204
_cell_formula_units_Z   2
loop_
 _symmetry_equiv_pos_site_id
 _symmetry_equiv_pos_as_xyz
  1  'x, y, z'
loop_
 _atom_site_type_symbol
 _atom_site_label
 _atom_site_symmetry_multiplicity
 _atom_site_fract_x
 _atom_site_fract_y
 _atom_site_fract_z
 _atom_site_occupancy
  C  C0  1  0.33333300  0.66666700  0.32577100  1
  C  C1  1  0.66666700  0.33333300  0.67422900  1
  C  C2  1  0.66666700  0.33333300  0.82577100  1
  C  C3  1  0.33333300  0.66666700  0.17422900  1
  C  C4  1  0.38404100  0.40278800  0.25000000  1
  C  C5  1  0.59721200  0.98125300  0.25000000  1
  C  C6  1  0.01874700  0.61595900  0.25000000  1
  C  C7  1  0.59721200  0.61595900  0.25000000  1
  C  C8  1  0.01874700  0.40278800  0.25000000  1
  C  C9  1  0.38404100  0.98125300  0.25000000  1
  C  C10  1  0.61595900  0.59721200  0.75000000  1
  C  C11  1  0.40278800  0.01874700  0.75000000  1
  C  C12  1  0.98125300  0.38404100  0.75000000  1
  C  C13  1  0.40278800  0.38404100  0.75000000  1
  C  C14  1  0.98125300  0.59721200  0.75000000  1
  C  C15  1  0.61595900  0.01874700  0.75000000  1
  C  C16  1  0.21993700  0.78006300  0.44914200  1
  C  C17  1  0.21993700  0.43987400  0.44914200  1
  C  C18  1  0.56012600  0.78006300  0.44914200  1
  C  C19  1  0.78006300  0.21993700  0.55085800  1
  C  C20  1  0.78006300  0.56012600  0.55085800  1
  C  C21  1  0.43987400  0.21993700  0.55085800  1
  C  C22  1  0.78006300  0.21993700  0.94914200  1
  C  C23  1  0.78006300  0.56012600  0.94914200  1
  C  C24  1  0.43987400  0.21993700  0.94914200  1
  C  C25  1  0.21993700  0.78006300  0.05085800  1
  C  C26  1  0.21993700  0.43987400  0.05085800  1
  C  C27  1  0.56012600  0.78006300  0.05085800  1
  C  C28  1  0.26831000  0.94470400  0.38323700  1
  C  C29  1  0.05529600  0.32360700  0.38323700  1
  C  C30  1  0.67639300  0.73169000  0.38323700  1
  C  C31  1  0.05529600  0.73169000  0.38323700  1
  C  C32  1  0.67639300  0.94470400  0.38323700  1
  C  C33  1  0.26831000  0.32360700  0.38323700  1
  C  C34  1  0.73169000  0.05529600  0.61676300  1
  C  C35  1  0.94470400  0.67639300  0.61676300  1
  C  C36  1  0.32360700  0.26831000  0.61676300  1
  C  C37  1  0.94470400  0.26831000  0.61676300  1
  C  C38  1  0.32360700  0.05529600  0.61676300  1
  C  C39  1  0.73169000  0.67639300  0.61676300  1
  C  C40  1  0.73169000  0.05529600  0.88323700  1
  C  C41  1  0.94470400  0.67639300  0.88323700  1
  C  C42  1  0.32360700  0.26831000  0.88323700  1
  C  C43  1  0.94470400  0.26831000  0.88323700  1
  C  C44  1  0.32360700  0.05529600  0.88323700  1
  C  C45  1  0.73169000  0.67639300  0.88323700  1
  C  C46  1  0.26831000  0.94470400  0.11676300  1
  C  C47  1  0.05529600  0.32360700  0.11676300  1
  C  C48  1  0.67639300  0.73169000  0.11676300  1
  C  C49  1  0.05529600  0.73169000  0.11676300  1
  C  C50  1  0.67639300  0.94470400  0.11676300  1
  C  C51  1  0.26831000  0.32360700  0.11676300  1
  Ni  Ni52  1  0.00000000  0.00000000  0.25000000  1
  Ni  Ni53  1  0.00000000  0.00000000  0.75000000  1
  Ni  Ni54  1  0.33333300  0.66666700  0.91838000  1
  Ni  Ni55  1  0.66666700  0.33333300  0.08162000  1
  Ni  Ni56  1  0.66666700  0.33333300  0.41838000  1
  Ni  Ni57  1  0.33333300  0.66666700  0.58162000  1
  Cu  Cu58  1  0.44560200  0.55439800  0.25000000  1
  Cu  Cu59  1  0.44560200  0.89120400  0.25000000  1
  Cu  Cu60  1  0.10879600  0.55439800  0.25000000  1
  Cu  Cu61  1  0.55439800  0.44560200  0.75000000  1
  Cu  Cu62  1  0.55439800  0.10879600  0.75000000  1
  Cu  Cu63  1  0.89120400  0.44560200  0.75000000  1
  Cu  Cu64  1  0.20467700  0.79532300  0.39411800  1
  Cu  Cu65  1  0.20467700  0.40935500  0.39411800  1
  Cu  Cu66  1  0.59064500  0.79532300  0.39411800  1
  Cu  Cu67  1  0.79532300  0.20467700  0.60588200  1
  Cu  Cu68  1  0.79532300  0.59064500  0.60588200  1
  Cu  Cu69  1  0.40935500  0.20467700  0.60588200  1
  Cu  Cu70  1  0.79532300  0.20467700  0.89411800  1
  Cu  Cu71  1  0.79532300  0.59064500  0.89411800  1
  Cu  Cu72  1  0.40935500  0.20467700  0.89411800  1
  Cu  Cu73  1  0.20467700  0.79532300  0.10588200  1
  Cu  Cu74  1  0.20467700  0.40935500  0.10588200  1
  Cu  Cu75  1  0.59064500  0.79532300  0.10588200  1
