# generated using pymatgen
data_CuNiC3
_symmetry_space_group_name_H-M   'P 1'
_cell_length_a   5.42094800
_cell_length_b   9.43247200
_cell_length_c   20.06184000
_cell_angle_alpha   90.00000000
_cell_angle_beta   90.00000000
_cell_angle_gamma   90.00000000
_symmetry_Int_Tables_number   1
_chemical_formula_structural   CuNiC3
_chemical_formula_sum   'Cu16 Ni16 C48'
_cell_volume   1025.82086549
_cell_formula_units_Z   16
loop_
 _symmetry_equiv_pos_site_id
 _symmetry_equiv_pos_as_xyz
  1  'x, y, z'
loop_
 _atom_site_type_symbol
 _atom_site_label
 _atom_site_symmetry_multiplicity
 _atom_site_fract_x
 _atom_site_fract_y
 _atom_site_fract_z
 _atom_site_occupancy
  Ni  Ni0  1  0.73437600  0.34961400  0.00286700  1
  Ni  Ni1  1  0.23437600  0.15038600  0.00286700  1
  Ni  Ni2  1  0.51521800  0.34894100  0.24769100  1
  Ni  Ni3  1  0.01521800  0.15105900  0.24769100  1
  Ni  Ni4  1  0.51521800  0.84894100  0.25230900  1
  Ni  Ni5  1  0.01521800  0.65105900  0.25230900  1
  Ni  Ni6  1  0.73437600  0.84961400  0.49713300  1
  Ni  Ni7  1  0.23437600  0.65038600  0.49713300  1
  Ni  Ni8  1  0.76562400  0.34961400  0.50286700  1
  Ni  Ni9  1  0.26562400  0.15038600  0.50286700  1
  Ni  Ni10  1  0.98478200  0.34894100  0.74769100  1
  Ni  Ni11  1  0.48478200  0.15105900  0.74769100  1
  Ni  Ni12  1  0.98478200  0.84894100  0.75230900  1
  Ni  Ni13  1  0.48478200  0.65105900  0.75230900  1
  Ni  Ni14  1  0.76562400  0.84961400  0.99713300  1
  Ni  Ni15  1  0.26562400  0.65038600  0.99713300  1
  Cu  Cu16  1  0.63303000  0.08459700  0.12478900  1
  Cu  Cu17  1  0.13303000  0.41540300  0.12478900  1
  Cu  Cu18  1  0.62921300  0.59812800  0.12539100  1
  Cu  Cu19  1  0.12921300  0.90187200  0.12539100  1
  Cu  Cu20  1  0.12921300  0.40187200  0.37460900  1
  Cu  Cu21  1  0.62921300  0.09812800  0.37460900  1
  Cu  Cu22  1  0.13303000  0.91540300  0.37521100  1
  Cu  Cu23  1  0.63303000  0.58459700  0.37521100  1
  Cu  Cu24  1  0.36697000  0.41540300  0.62478900  1
  Cu  Cu25  1  0.86697000  0.08459700  0.62478900  1
  Cu  Cu26  1  0.37078700  0.90187200  0.62539100  1
  Cu  Cu27  1  0.87078700  0.59812800  0.62539100  1
  Cu  Cu28  1  0.37078700  0.40187200  0.87460900  1
  Cu  Cu29  1  0.87078700  0.09812800  0.87460900  1
  Cu  Cu30  1  0.36697000  0.91540300  0.87521100  1
  Cu  Cu31  1  0.86697000  0.58459700  0.87521100  1
  C  C32  1  0.97090100  0.23855400  0.00552200  1
  C  C33  1  0.47090100  0.26144600  0.00552200  1
  C  C34  1  0.78400500  0.93677800  0.06776300  1
  C  C35  1  0.28400500  0.56322200  0.06776300  1
  C  C36  1  0.77884200  0.45475100  0.06671500  1
  C  C37  1  0.27884200  0.04524900  0.06671500  1
  C  C38  1  0.48453400  0.94046600  0.18340500  1
  C  C39  1  0.98453400  0.55953400  0.18340500  1
  C  C40  1  0.98024600  0.05112500  0.18142700  1
  C  C41  1  0.48024600  0.44887500  0.18142700  1
  C  C42  1  0.78087700  0.26398300  0.24564800  1
  C  C43  1  0.28087700  0.23601700  0.24564800  1
  C  C44  1  0.28087700  0.73601700  0.25435200  1
  C  C45  1  0.78087700  0.76398300  0.25435200  1
  C  C46  1  0.98024600  0.55112500  0.31857300  1
  C  C47  1  0.48024600  0.94887500  0.31857300  1
  C  C48  1  0.48453400  0.44046600  0.31659500  1
  C  C49  1  0.98453400  0.05953400  0.31659500  1
  C  C50  1  0.77884200  0.95475100  0.43328500  1
  C  C51  1  0.27884200  0.54524900  0.43328500  1
  C  C52  1  0.78400500  0.43677800  0.43223700  1
  C  C53  1  0.28400500  0.06322200  0.43223700  1
  C  C54  1  0.47090100  0.76144600  0.49447800  1
  C  C55  1  0.97090100  0.73855400  0.49447800  1
  C  C56  1  0.02909900  0.26144600  0.50552200  1
  C  C57  1  0.52909900  0.23855400  0.50552200  1
  C  C58  1  0.71599500  0.93677800  0.56776300  1
  C  C59  1  0.21599500  0.56322200  0.56776300  1
  C  C60  1  0.72115800  0.45475100  0.56671500  1
  C  C61  1  0.22115800  0.04524900  0.56671500  1
  C  C62  1  0.01546600  0.94046600  0.68340500  1
  C  C63  1  0.51546600  0.55953400  0.68340500  1
  C  C64  1  0.51975400  0.05112500  0.68142700  1
  C  C65  1  0.01975400  0.44887500  0.68142700  1
  C  C66  1  0.21912300  0.23601700  0.74564800  1
  C  C67  1  0.71912300  0.26398300  0.74564800  1
  C  C68  1  0.21912300  0.73601700  0.75435200  1
  C  C69  1  0.71912300  0.76398300  0.75435200  1
  C  C70  1  0.51975400  0.55112500  0.81857300  1
  C  C71  1  0.01975400  0.94887500  0.81857300  1
  C  C72  1  0.01546600  0.44046600  0.81659500  1
  C  C73  1  0.51546600  0.05953400  0.81659500  1
  C  C74  1  0.72115800  0.95475100  0.93328500  1
  C  C75  1  0.22115800  0.54524900  0.93328500  1
  C  C76  1  0.71599500  0.43677800  0.93223700  1
  C  C77  1  0.21599500  0.06322200  0.93223700  1
  C  C78  1  0.02909900  0.76144600  0.99447800  1
  C  C79  1  0.52909900  0.73855400  0.99447800  1
