# generated using pymatgen
data_Cu7Ni5C6
_symmetry_space_group_name_H-M   'P 1'
_cell_length_a   5.69998391
_cell_length_b   5.69998391
_cell_length_c   7.70320706
_cell_angle_alpha   69.45618084
_cell_angle_beta   69.45618084
_cell_angle_gamma   69.27721540
_symmetry_Int_Tables_number   1
_chemical_formula_structural   Cu7Ni5C6
_chemical_formula_sum   'Cu7 Ni5 C6'
_cell_volume   211.72329432
_cell_formula_units_Z   1
loop_
 _symmetry_equiv_pos_site_id
 _symmetry_equiv_pos_as_xyz
  1  'x, y, z'
loop_
 _atom_site_type_symbol
 _atom_site_label
 _atom_site_symmetry_multiplicity
 _atom_site_fract_x
 _atom_site_fract_y
 _atom_site_fract_z
 _atom_site_occupancy
  C  C0  1  0.66887900  0.33112100  0.50000000  1
  C  C1  1  0.34083200  0.99537200  0.33087900  1
  C  C2  1  0.64296400  0.35703600  0.00000000  1
  C  C3  1  0.35186100  0.99643600  0.82726300  1
  C  C4  1  0.00356400  0.64813900  0.17273700  1
  C  C5  1  0.00462800  0.65916800  0.66912100  1
  Ni  Ni6  1  0.63706400  0.69745800  0.33108600  1
  Ni  Ni7  1  0.33695400  0.66304600  0.00000000  1
  Ni  Ni8  1  0.03718200  0.29168400  0.33418100  1
  Ni  Ni9  1  0.70831600  0.96281800  0.66581900  1
  Ni  Ni10  1  0.30254200  0.36293600  0.66891400  1
  Cu  Cu11  1  0.95812600  0.04187400  0.00000000  1
  Cu  Cu12  1  0.90456100  0.57389300  0.96174700  1
  Cu  Cu13  1  0.23331000  0.89587700  0.62726000  1
  Cu  Cu14  1  0.56318700  0.22420200  0.30536000  1
  Cu  Cu15  1  0.77579800  0.43681300  0.69464000  1
  Cu  Cu16  1  0.42610700  0.09543900  0.03825300  1
  Cu  Cu17  1  0.10412300  0.76669000  0.37274000  1
