# generated using pymatgen
data_Cu3NiC10
_symmetry_space_group_name_H-M   'P 1'
_cell_length_a   5.96377098
_cell_length_b   5.96377098
_cell_length_c   5.96377126
_cell_angle_alpha   59.43352045
_cell_angle_beta   59.43352045
_cell_angle_gamma   59.43351481
_symmetry_Int_Tables_number   1
_chemical_formula_structural   Cu3NiC10
_chemical_formula_sum   'Cu3 Ni1 C10'
_cell_volume   148.05194250
_cell_formula_units_Z   1
loop_
 _symmetry_equiv_pos_site_id
 _symmetry_equiv_pos_as_xyz
  1  'x, y, z'
loop_
 _atom_site_type_symbol
 _atom_site_label
 _atom_site_symmetry_multiplicity
 _atom_site_fract_x
 _atom_site_fract_y
 _atom_site_fract_z
 _atom_site_occupancy
  C  C0  1  0.87666000  0.87666000  0.87666000  1
  C  C1  1  0.50046500  0.50046500  0.50046500  1
  Ni  Ni2  1  0.12015900  0.12015900  0.12015900  1
  Cu  Cu3  1  0.99334200  0.50136700  0.50136700  1
  Cu  Cu4  1  0.50136700  0.99334200  0.50136700  1
  Cu  Cu5  1  0.50136700  0.50136700  0.99334200  1
  C  C6  1  0.73941500  0.73941500  0.73941500  1
  C  C7  1  0.75128100  0.75128100  0.29155600  1
  C  C8  1  0.75128100  0.29155600  0.75128100  1
  C  C9  1  0.29155600  0.75128100  0.75128100  1
  C  C10  1  0.70499800  0.25419700  0.25419700  1
  C  C11  1  0.25419700  0.70499800  0.25419700  1
  C  C12  1  0.25419700  0.25419700  0.70499800  1
  C  C13  1  0.25971400  0.25971400  0.25971400  1
