# generated using pymatgen
data_Cu3Ni12C17
_symmetry_space_group_name_H-M   'P 1'
_cell_length_a   8.81693911
_cell_length_b   8.81693911
_cell_length_c   10.93913700
_cell_angle_alpha   90.00000000
_cell_angle_beta   90.00000000
_cell_angle_gamma   119.99999335
_symmetry_Int_Tables_number   1
_chemical_formula_structural   Cu3Ni12C17
_chemical_formula_sum   'Cu6 Ni24 C34'
_cell_volume   736.46041048
_cell_formula_units_Z   2
loop_
 _symmetry_equiv_pos_site_id
 _symmetry_equiv_pos_as_xyz
  1  'x, y, z'
loop_
 _atom_site_type_symbol
 _atom_site_label
 _atom_site_symmetry_multiplicity
 _atom_site_fract_x
 _atom_site_fract_y
 _atom_site_fract_z
 _atom_site_occupancy
  C  C0  1  0.33333300  0.66666700  0.96540400  1
  C  C1  1  0.33333300  0.66666700  0.53459600  1
  C  C2  1  0.66666700  0.33333300  0.46540400  1
  C  C3  1  0.66666700  0.33333300  0.03459600  1
  Ni  Ni4  1  0.80053900  0.21709100  0.63202200  1
  Ni  Ni5  1  0.78290900  0.58344900  0.63202200  1
  Ni  Ni6  1  0.41655100  0.19946100  0.63202200  1
  Ni  Ni7  1  0.80053900  0.21709100  0.86797800  1
  Ni  Ni8  1  0.78290900  0.58344900  0.86797800  1
  Ni  Ni9  1  0.41655100  0.19946100  0.86797800  1
  Ni  Ni10  1  0.21709100  0.80053900  0.13202200  1
  Ni  Ni11  1  0.58344900  0.78290900  0.13202200  1
  Ni  Ni12  1  0.19946100  0.41655100  0.13202200  1
  Ni  Ni13  1  0.21709100  0.80053900  0.36797800  1
  Ni  Ni14  1  0.58344900  0.78290900  0.36797800  1
  Ni  Ni15  1  0.19946100  0.41655100  0.36797800  1
  Ni  Ni16  1  0.94091800  0.41752800  0.59272000  1
  Ni  Ni17  1  0.58247200  0.52339000  0.59272000  1
  Ni  Ni18  1  0.47661000  0.05908200  0.59272000  1
  Ni  Ni19  1  0.94091800  0.41752800  0.90728000  1
  Ni  Ni20  1  0.58247200  0.52339000  0.90728000  1
  Ni  Ni21  1  0.47661000  0.05908200  0.90728000  1
  Ni  Ni22  1  0.41752800  0.94091800  0.09272000  1
  Ni  Ni23  1  0.52339000  0.58247200  0.09272000  1
  Ni  Ni24  1  0.05908200  0.47661000  0.09272000  1
  Ni  Ni25  1  0.41752800  0.94091800  0.40728000  1
  Ni  Ni26  1  0.52339000  0.58247200  0.40728000  1
  Ni  Ni27  1  0.05908200  0.47661000  0.40728000  1
  Cu  Cu28  1  0.61683600  0.87779000  0.75000000  1
  Cu  Cu29  1  0.12221000  0.73904500  0.75000000  1
  Cu  Cu30  1  0.26095500  0.38316400  0.75000000  1
  Cu  Cu31  1  0.87779000  0.61683600  0.25000000  1
  Cu  Cu32  1  0.73904500  0.12221000  0.25000000  1
  Cu  Cu33  1  0.38316400  0.26095500  0.25000000  1
  C  C34  1  0.47627100  0.16742900  0.56667300  1
  C  C35  1  0.83257100  0.30884300  0.56667300  1
  C  C36  1  0.69115700  0.52372900  0.56667300  1
  C  C37  1  0.47627100  0.16742900  0.93332700  1
  C  C38  1  0.83257100  0.30884300  0.93332700  1
  C  C39  1  0.69115700  0.52372900  0.93332700  1
  C  C40  1  0.16742900  0.47627100  0.06667300  1
  C  C41  1  0.30884300  0.83257100  0.06667300  1
  C  C42  1  0.52372900  0.69115700  0.06667300  1
  C  C43  1  0.16742900  0.47627100  0.43332700  1
  C  C44  1  0.30884300  0.83257100  0.43332700  1
  C  C45  1  0.52372900  0.69115700  0.43332700  1
  C  C46  1  0.38654100  0.51588400  0.87212200  1
  C  C47  1  0.48411600  0.87065700  0.87212200  1
  C  C48  1  0.12934300  0.61345900  0.87212200  1
  C  C49  1  0.38654100  0.51588400  0.62787800  1
  C  C50  1  0.48411600  0.87065700  0.62787800  1
  C  C51  1  0.12934300  0.61345900  0.62787800  1
  C  C52  1  0.51588400  0.38654100  0.37212200  1
  C  C53  1  0.87065700  0.48411600  0.37212200  1
  C  C54  1  0.61345900  0.12934300  0.37212200  1
  C  C55  1  0.51588400  0.38654100  0.12787800  1
  C  C56  1  0.87065700  0.48411600  0.12787800  1
  C  C57  1  0.61345900  0.12934300  0.12787800  1
  C  C58  1  0.76973300  0.09333400  0.75000000  1
  C  C59  1  0.90666600  0.67639900  0.75000000  1
  C  C60  1  0.32360100  0.23026700  0.75000000  1
  C  C61  1  0.09333400  0.76973300  0.25000000  1
  C  C62  1  0.67639900  0.90666600  0.25000000  1
  C  C63  1  0.23026700  0.32360100  0.25000000  1
