# generated using pymatgen
data_CuNiC
_symmetry_space_group_name_H-M   'P 1'
_cell_length_a   5.59112823
_cell_length_b   5.59112823
_cell_length_c   5.59112818
_cell_angle_alpha   55.67780868
_cell_angle_beta   55.67780868
_cell_angle_gamma   55.67780510
_symmetry_Int_Tables_number   1
_chemical_formula_structural   CuNiC
_chemical_formula_sum   'Cu3 Ni3 C3'
_cell_volume   111.19688179
_cell_formula_units_Z   3
loop_
 _symmetry_equiv_pos_site_id
 _symmetry_equiv_pos_as_xyz
  1  'x, y, z'
loop_
 _atom_site_type_symbol
 _atom_site_label
 _atom_site_symmetry_multiplicity
 _atom_site_fract_x
 _atom_site_fract_y
 _atom_site_fract_z
 _atom_site_occupancy
  C  C0  1  0.86079200  0.86079200  0.86079200  1
  C  C1  1  0.64207500  0.64207500  0.64207500  1
  C  C2  1  0.32673100  0.32673100  0.32673100  1
  Ni  Ni3  1  0.58992700  0.93586300  0.24828000  1
  Ni  Ni4  1  0.24828000  0.58992700  0.93586300  1
  Ni  Ni5  1  0.93586300  0.24828000  0.58992700  1
  Cu  Cu6  1  0.06089800  0.69277400  0.49386000  1
  Cu  Cu7  1  0.69277400  0.49386000  0.06089800  1
  Cu  Cu8  1  0.49386000  0.06089800  0.69277400  1
