# generated using pymatgen
data_CuNi3C10
_symmetry_space_group_name_H-M   'P 1'
_cell_length_a   8.30234800
_cell_length_b   8.30234800
_cell_length_c   8.30234800
_cell_angle_alpha   90.00000000
_cell_angle_beta   90.00000000
_cell_angle_gamma   90.00000000
_symmetry_Int_Tables_number   1
_chemical_formula_structural   CuNi3C10
_chemical_formula_sum   'Cu4 Ni12 C40'
_cell_volume   572.27239845
_cell_formula_units_Z   4
loop_
 _symmetry_equiv_pos_site_id
 _symmetry_equiv_pos_as_xyz
  1  'x, y, z'
loop_
 _atom_site_type_symbol
 _atom_site_label
 _atom_site_symmetry_multiplicity
 _atom_site_fract_x
 _atom_site_fract_y
 _atom_site_fract_z
 _atom_site_occupancy
  C  C0  1  0.12505700  0.87494300  0.37494300  1
  C  C1  1  0.24938000  0.24938000  0.24938000  1
  C  C2  1  0.75062000  0.74938000  0.25062000  1
  C  C3  1  0.87494300  0.37494300  0.12505700  1
  C  C4  1  0.37494300  0.12505700  0.87494300  1
  C  C5  1  0.25062000  0.75062000  0.74938000  1
  C  C6  1  0.74938000  0.25062000  0.75062000  1
  C  C7  1  0.62505700  0.62505700  0.62505700  1
  Ni  Ni8  1  0.37780100  0.87601200  0.12304200  1
  Ni  Ni9  1  0.12398800  0.62304200  0.12219900  1
  Ni  Ni10  1  0.12304200  0.37780100  0.87601200  1
  Ni  Ni11  1  0.12219900  0.12398800  0.62304200  1
  Ni  Ni12  1  0.37695800  0.62219900  0.37601200  1
  Ni  Ni13  1  0.62398800  0.87695800  0.87780100  1
  Ni  Ni14  1  0.62219900  0.37601200  0.37695800  1
  Ni  Ni15  1  0.37601200  0.37695800  0.62219900  1
  Ni  Ni16  1  0.62304200  0.12219900  0.12398800  1
  Ni  Ni17  1  0.87780100  0.62398800  0.87695800  1
  Ni  Ni18  1  0.87695800  0.87780100  0.62398800  1
  Ni  Ni19  1  0.87601200  0.12304200  0.37780100  1
  Cu  Cu20  1  0.49870600  0.99870600  0.50129400  1
  Cu  Cu21  1  0.00129400  0.00129400  0.00129400  1
  Cu  Cu22  1  0.99870600  0.50129400  0.49870600  1
  Cu  Cu23  1  0.50129400  0.49870600  0.99870600  1
  C  C24  1  0.60603600  0.60129600  0.37115500  1
  C  C25  1  0.38669400  0.38669400  0.38669400  1
  C  C26  1  0.10603600  0.89870400  0.62884500  1
  C  C27  1  0.62884500  0.10603600  0.89870400  1
  C  C28  1  0.87877000  0.64808300  0.64146100  1
  C  C29  1  0.64808300  0.64146100  0.87877000  1
  C  C30  1  0.12884500  0.39396400  0.10129600  1
  C  C31  1  0.60129600  0.37115500  0.60603600  1
  C  C32  1  0.89396400  0.39870400  0.87115500  1
  C  C33  1  0.14808300  0.85853900  0.12123000  1
  C  C34  1  0.64146100  0.87877000  0.64808300  1
  C  C35  1  0.37115500  0.60603600  0.60129600  1
  C  C36  1  0.10129600  0.12884500  0.39396400  1
  C  C37  1  0.88669400  0.11330600  0.61330600  1
  C  C38  1  0.37877000  0.85191700  0.35853900  1
  C  C39  1  0.39870400  0.87115500  0.89396400  1
  C  C40  1  0.35853900  0.37877000  0.85191700  1
  C  C41  1  0.35191700  0.14146100  0.62123000  1
  C  C42  1  0.61330600  0.88669400  0.11330600  1
  C  C43  1  0.86290500  0.86290500  0.86290500  1
  C  C44  1  0.11330600  0.61330600  0.88669400  1
  C  C45  1  0.36290500  0.63709500  0.13709500  1
  C  C46  1  0.12123000  0.14808300  0.85853900  1
  C  C47  1  0.89870400  0.62884500  0.10603600  1
  C  C48  1  0.63709500  0.13709500  0.36290500  1
  C  C49  1  0.85191700  0.35853900  0.37877000  1
  C  C50  1  0.14146100  0.62123000  0.35191700  1
  C  C51  1  0.39396400  0.10129600  0.12884500  1
  C  C52  1  0.87115500  0.89396400  0.39870400  1
  C  C53  1  0.13709500  0.36290500  0.63709500  1
  C  C54  1  0.62123000  0.35191700  0.14146100  1
  C  C55  1  0.85853900  0.12123000  0.14808300  1
