# generated using pymatgen
data_Cu7Ni2C
_symmetry_space_group_name_H-M   'P 1'
_cell_length_a   7.46639109
_cell_length_b   7.46639109
_cell_length_c   8.65686352
_cell_angle_alpha   57.16354772
_cell_angle_beta   57.16354772
_cell_angle_gamma   64.70981906
_symmetry_Int_Tables_number   1
_chemical_formula_structural   Cu7Ni2C
_chemical_formula_sum   'Cu14 Ni4 C2'
_cell_volume   334.58139013
_cell_formula_units_Z   2
loop_
 _symmetry_equiv_pos_site_id
 _symmetry_equiv_pos_as_xyz
  1  'x, y, z'
loop_
 _atom_site_type_symbol
 _atom_site_label
 _atom_site_symmetry_multiplicity
 _atom_site_fract_x
 _atom_site_fract_y
 _atom_site_fract_z
 _atom_site_occupancy
  C  C0  1  0.84229700  0.15770300  0.75000000  1
  C  C1  1  0.15770300  0.84229700  0.25000000  1
  Ni  Ni2  1  0.71617800  0.65314000  0.29472100  1
  Ni  Ni3  1  0.34686000  0.28382200  0.20527900  1
  Ni  Ni4  1  0.28382200  0.34686000  0.70527900  1
  Ni  Ni5  1  0.65314000  0.71617800  0.79472100  1
  Cu  Cu6  1  0.79676000  0.91842000  0.12632200  1
  Cu  Cu7  1  0.08158000  0.20324000  0.37367800  1
  Cu  Cu8  1  0.20324000  0.08158000  0.87367800  1
  Cu  Cu9  1  0.91842000  0.79676000  0.62632200  1
  Cu  Cu10  1  0.78281100  0.59747300  0.49343000  1
  Cu  Cu11  1  0.40252700  0.21718900  0.00657000  1
  Cu  Cu12  1  0.21718900  0.40252700  0.50657000  1
  Cu  Cu13  1  0.59747300  0.78281100  0.99343000  1
  Cu  Cu14  1  0.41989400  0.74163400  0.40618500  1
  Cu  Cu15  1  0.25836600  0.58010600  0.09381500  1
  Cu  Cu16  1  0.58010600  0.25836600  0.59381500  1
  Cu  Cu17  1  0.74163400  0.41989400  0.90618500  1
  Cu  Cu18  1  0.17017100  0.82982900  0.75000000  1
  Cu  Cu19  1  0.82982900  0.17017100  0.25000000  1
