# generated using pymatgen
data_CuNi2C15
_symmetry_space_group_name_H-M   'P 1'
_cell_length_a   8.57983364
_cell_length_b   8.57983364
_cell_length_c   8.57983352
_cell_angle_alpha   60.19478459
_cell_angle_beta   60.19478459
_cell_angle_gamma   60.19478691
_symmetry_Int_Tables_number   1
_chemical_formula_structural   CuNi2C15
_chemical_formula_sum   'Cu2 Ni4 C30'
_cell_volume   448.57284341
_cell_formula_units_Z   2
loop_
 _symmetry_equiv_pos_site_id
 _symmetry_equiv_pos_as_xyz
  1  'x, y, z'
loop_
 _atom_site_type_symbol
 _atom_site_label
 _atom_site_symmetry_multiplicity
 _atom_site_fract_x
 _atom_site_fract_y
 _atom_site_fract_z
 _atom_site_occupancy
  Ni  Ni0  1  0.35636600  0.35636600  0.35636600  1
  Ni  Ni1  1  0.85636600  0.85636600  0.85636600  1
  Ni  Ni2  1  0.14363400  0.14363400  0.14363400  1
  Ni  Ni3  1  0.64363400  0.64363400  0.64363400  1
  Cu  Cu4  1  0.00000000  0.00000000  0.00000000  1
  Cu  Cu5  1  0.50000000  0.50000000  0.50000000  1
  C  C6  1  0.75000000  0.04309700  0.45690300  1
  C  C7  1  0.04309700  0.45690300  0.75000000  1
  C  C8  1  0.45690300  0.75000000  0.04309700  1
  C  C9  1  0.54309700  0.25000000  0.95690300  1
  C  C10  1  0.95690300  0.54309700  0.25000000  1
  C  C11  1  0.25000000  0.95690300  0.54309700  1
  C  C12  1  0.88469600  0.49354900  0.68974300  1
  C  C13  1  0.49354900  0.68974300  0.88469600  1
  C  C14  1  0.68974300  0.88469600  0.49354900  1
  C  C15  1  0.91322800  0.05976100  0.25925300  1
  C  C16  1  0.81025700  0.00645100  0.61530400  1
  C  C17  1  0.58677200  0.24074700  0.44023900  1
  C  C18  1  0.05976100  0.25925300  0.91322800  1
  C  C19  1  0.24074700  0.44023900  0.58677200  1
  C  C20  1  0.38469600  0.18974300  0.99354900  1
  C  C21  1  0.44023900  0.58677200  0.24074700  1
  C  C22  1  0.74074700  0.08677200  0.94023900  1
  C  C23  1  0.99354900  0.38469600  0.18974300  1
  C  C24  1  0.00645100  0.61530400  0.81025700  1
  C  C25  1  0.25925300  0.91322800  0.05976100  1
  C  C26  1  0.55976100  0.41322800  0.75925300  1
  C  C27  1  0.61530400  0.81025700  0.00645100  1
  C  C28  1  0.75925300  0.55976100  0.41322800  1
  C  C29  1  0.94023900  0.74074700  0.08677200  1
  C  C30  1  0.41322800  0.75925300  0.55976100  1
  C  C31  1  0.18974300  0.99354900  0.38469600  1
  C  C32  1  0.08677200  0.94023900  0.74074700  1
  C  C33  1  0.31025700  0.11530400  0.50645100  1
  C  C34  1  0.50645100  0.31025700  0.11530400  1
  C  C35  1  0.11530400  0.50645100  0.31025700  1
