# generated using pymatgen
data_CuNiC5
_symmetry_space_group_name_H-M   'P 1'
_cell_length_a   7.49445216
_cell_length_b   7.49445216
_cell_length_c   9.77944800
_cell_angle_alpha   90.00000000
_cell_angle_beta   90.00000000
_cell_angle_gamma   120.00000138
_symmetry_Int_Tables_number   1
_chemical_formula_structural   CuNiC5
_chemical_formula_sum   'Cu6 Ni6 C30'
_cell_volume   475.69079807
_cell_formula_units_Z   6
loop_
 _symmetry_equiv_pos_site_id
 _symmetry_equiv_pos_as_xyz
  1  'x, y, z'
loop_
 _atom_site_type_symbol
 _atom_site_label
 _atom_site_symmetry_multiplicity
 _atom_site_fract_x
 _atom_site_fract_y
 _atom_site_fract_z
 _atom_site_occupancy
  C  C0  1  0.06965800  0.58772300  0.48213700  1
  C  C1  1  0.51806500  0.93034200  0.48213700  1
  C  C2  1  0.41227700  0.48193500  0.48213700  1
  C  C3  1  0.48193500  0.41227700  0.98213700  1
  C  C4  1  0.58772300  0.06965800  0.98213700  1
  C  C5  1  0.93034200  0.51806500  0.98213700  1
  Ni  Ni6  1  0.22713200  0.95672100  0.27112400  1
  Ni  Ni7  1  0.04327900  0.27041100  0.27112400  1
  Ni  Ni8  1  0.27041100  0.04327900  0.77112400  1
  Ni  Ni9  1  0.72958900  0.77286800  0.27112400  1
  Ni  Ni10  1  0.77286800  0.72958900  0.77112400  1
  Ni  Ni11  1  0.95672100  0.22713200  0.77112400  1
  Cu  Cu12  1  0.33333300  0.66666700  0.18155800  1
  Cu  Cu13  1  0.00000000  0.00000000  0.00688600  1
  Cu  Cu14  1  0.00000000  0.00000000  0.50688600  1
  Cu  Cu15  1  0.33333300  0.66666700  0.77008200  1
  Cu  Cu16  1  0.66666700  0.33333300  0.68155800  1
  Cu  Cu17  1  0.66666700  0.33333300  0.27008200  1
  C  C18  1  0.09831200  0.87334000  0.45619400  1
  C  C19  1  0.24117800  0.79729300  0.12318600  1
  C  C20  1  0.39887600  0.88538800  0.82862900  1
  C  C21  1  0.11461200  0.51348800  0.82862900  1
  C  C22  1  0.20270700  0.44388500  0.12318600  1
  C  C23  1  0.33333300  0.66666700  0.33959400  1
  C  C24  1  0.00000000  0.00000000  0.17274500  1
  C  C25  1  0.00000000  0.00000000  0.67274500  1
  C  C26  1  0.33333300  0.66666700  0.61247500  1
  C  C27  1  0.12666000  0.22497100  0.45619400  1
  C  C28  1  0.22497100  0.12666000  0.95619400  1
  C  C29  1  0.55611500  0.75882200  0.12318600  1
  C  C30  1  0.48651200  0.60112400  0.82862900  1
  C  C31  1  0.77502900  0.90168800  0.45619400  1
  C  C32  1  0.44388500  0.20270700  0.62318600  1
  C  C33  1  0.51348800  0.11461200  0.32862900  1
  C  C34  1  0.60112400  0.48651200  0.32862900  1
  C  C35  1  0.75882200  0.55611500  0.62318600  1
  C  C36  1  0.66666700  0.33333300  0.83959400  1
  C  C37  1  0.66666700  0.33333300  0.11247500  1
  C  C38  1  0.90168800  0.77502900  0.95619400  1
  C  C39  1  0.79729300  0.24117800  0.62318600  1
  C  C40  1  0.88538800  0.39887600  0.32862900  1
  C  C41  1  0.87334000  0.09831200  0.95619400  1
