# generated using pymatgen
data_Cu(NiC4)3
_symmetry_space_group_name_H-M   'P 1'
_cell_length_a   5.14049400
_cell_length_b   5.92846065
_cell_length_c   10.68779034
_cell_angle_alpha   73.90527060
_cell_angle_beta   76.11000092
_cell_angle_gamma   73.23146107
_symmetry_Int_Tables_number   1
_chemical_formula_structural   Cu(NiC4)3
_chemical_formula_sum   'Cu2 Ni6 C24'
_cell_volume   295.06807581
_cell_formula_units_Z   2
loop_
 _symmetry_equiv_pos_site_id
 _symmetry_equiv_pos_as_xyz
  1  'x, y, z'
loop_
 _atom_site_type_symbol
 _atom_site_label
 _atom_site_symmetry_multiplicity
 _atom_site_fract_x
 _atom_site_fract_y
 _atom_site_fract_z
 _atom_site_occupancy
  C  C0  1  0.00000000  0.00000000  0.50000000  1
  C  C1  1  0.99998800  0.62480300  0.75014100  1
  C  C2  1  0.00001200  0.37519700  0.24985900  1
  C  C3  1  0.99997300  0.75009800  0.99989000  1
  C  C4  1  0.00000000  0.50000000  0.50000000  1
  C  C5  1  0.99949300  0.12525900  0.74994500  1
  C  C6  1  0.00050700  0.87474100  0.25005500  1
  C  C7  1  0.00002700  0.24990200  0.00011000  1
  Ni  Ni8  1  0.50000400  0.56231100  0.12510000  1
  Ni  Ni9  1  0.50019500  0.31241200  0.62482700  1
  Ni  Ni10  1  0.49999500  0.93747800  0.87482000  1
  Ni  Ni11  1  0.49980500  0.68758800  0.37517300  1
  Ni  Ni12  1  0.50000500  0.06252200  0.12518000  1
  Ni  Ni13  1  0.49999600  0.43768900  0.87490000  1
  Cu  Cu14  1  0.49996500  0.81270900  0.62488900  1
  Cu  Cu15  1  0.50003500  0.18729100  0.37511100  1
  C  C16  1  0.27527800  0.40094800  0.06040000  1
  C  C17  1  0.72595800  0.22371300  0.18961600  1
  C  C18  1  0.27376200  0.15065700  0.56036300  1
  C  C19  1  0.72564000  0.97363700  0.68935800  1
  C  C20  1  0.72472200  0.59905200  0.93960000  1
  C  C21  1  0.27404200  0.77628700  0.81038400  1
  C  C22  1  0.27464600  0.52594400  0.31052900  1
  C  C23  1  0.72540500  0.34895900  0.43938600  1
  C  C24  1  0.27558000  0.90107200  0.06022000  1
  C  C25  1  0.72435100  0.72386900  0.18976700  1
  C  C26  1  0.27459500  0.65104100  0.56061400  1
  C  C27  1  0.72535400  0.47405600  0.68947100  1
  C  C28  1  0.27564900  0.27613100  0.81023300  1
  C  C29  1  0.27436000  0.02636300  0.31064200  1
  C  C30  1  0.72442000  0.09892800  0.93978000  1
  C  C31  1  0.72623800  0.84934300  0.43963700  1
