# generated using pymatgen
data_Cu11NiC6
_symmetry_space_group_name_H-M   'P 1'
_cell_length_a   10.49597490
_cell_length_b   10.49597490
_cell_length_c   3.08490300
_cell_angle_alpha   90.00000000
_cell_angle_beta   90.00000000
_cell_angle_gamma   142.99249034
_symmetry_Int_Tables_number   1
_chemical_formula_structural   Cu11NiC6
_chemical_formula_sum   'Cu11 Ni1 C6'
_cell_volume   204.56231615
_cell_formula_units_Z   1
loop_
 _symmetry_equiv_pos_site_id
 _symmetry_equiv_pos_as_xyz
  1  'x, y, z'
loop_
 _atom_site_type_symbol
 _atom_site_label
 _atom_site_symmetry_multiplicity
 _atom_site_fract_x
 _atom_site_fract_y
 _atom_site_fract_z
 _atom_site_occupancy
  C  C0  1  0.00061300  0.99938700  0.00000000  1
  C  C1  1  0.49787400  0.50212600  0.50000000  1
  C  C2  1  0.16829600  0.83170400  0.50000000  1
  C  C3  1  0.33730300  0.66269700  0.00000000  1
  C  C4  1  0.66495200  0.33504800  0.00000000  1
  C  C5  1  0.83253200  0.16746800  0.50000000  1
  Ni  Ni6  1  0.39841500  0.60158500  0.50000000  1
  Cu  Cu7  1  0.06637700  0.93362300  0.50000000  1
  Cu  Cu8  1  0.69800500  0.69855100  0.00000000  1
  Cu  Cu9  1  0.63763700  0.97113200  0.00000000  1
  Cu  Cu10  1  0.30144900  0.30199500  0.00000000  1
  Cu  Cu11  1  0.97036600  0.63615300  0.00000000  1
  Cu  Cu12  1  0.59939200  0.40060800  0.50000000  1
  Cu  Cu13  1  0.26916500  0.73083500  0.50000000  1
  Cu  Cu14  1  0.73096300  0.26903700  0.50000000  1
  Cu  Cu15  1  0.02886800  0.36236300  0.00000000  1
  Cu  Cu16  1  0.36384700  0.02963400  0.00000000  1
  Cu  Cu17  1  0.93420000  0.06580000  0.50000000  1
