# generated using pymatgen
data_Cu10(NiC2)3
_symmetry_space_group_name_H-M   'P 1'
_cell_length_a   18.97228600
_cell_length_b   6.09828700
_cell_length_c   6.10956697
_cell_angle_alpha   89.71805739
_cell_angle_beta   90.00000000
_cell_angle_gamma   90.00000000
_symmetry_Int_Tables_number   1
_chemical_formula_structural   Cu10(NiC2)3
_chemical_formula_sum   'Cu20 Ni6 C12'
_cell_volume   706.85884029
_cell_formula_units_Z   2
loop_
 _symmetry_equiv_pos_site_id
 _symmetry_equiv_pos_as_xyz
  1  'x, y, z'
loop_
 _atom_site_type_symbol
 _atom_site_label
 _atom_site_symmetry_multiplicity
 _atom_site_fract_x
 _atom_site_fract_y
 _atom_site_fract_z
 _atom_site_occupancy
  C  C0  1  0.00013000  0.25380400  0.25293800  1
  C  C1  1  0.50013000  0.74619600  0.74706200  1
  C  C2  1  0.99987000  0.74619600  0.74706200  1
  C  C3  1  0.49987000  0.25380400  0.25293800  1
  C  C4  1  0.87905900  0.25375700  0.74565600  1
  C  C5  1  0.37905900  0.74624300  0.25434400  1
  C  C6  1  0.12094100  0.74624300  0.25434400  1
  C  C7  1  0.62094100  0.25375700  0.74565600  1
  C  C8  1  0.86891300  0.75857100  0.24251700  1
  C  C9  1  0.36891300  0.24142900  0.75748300  1
  C  C10  1  0.13108700  0.24142900  0.75748300  1
  C  C11  1  0.63108700  0.75857100  0.24251700  1
  Ni  Ni12  1  0.75000000  0.09946300  0.91183500  1
  Ni  Ni13  1  0.25000000  0.90053700  0.08816500  1
  Ni  Ni14  1  0.75000000  0.89662000  0.84264400  1
  Ni  Ni15  1  0.25000000  0.10338000  0.15735600  1
  Ni  Ni16  1  0.75000000  0.12705700  0.12404300  1
  Ni  Ni17  1  0.25000000  0.87294300  0.87595700  1
  Cu  Cu18  1  0.97558700  0.73815000  0.25873300  1
  Cu  Cu19  1  0.47558700  0.26185000  0.74126700  1
  Cu  Cu20  1  0.02441300  0.26185000  0.74126700  1
  Cu  Cu21  1  0.52441300  0.73815000  0.25873300  1
  Cu  Cu22  1  0.88909200  0.51430100  0.00978500  1
  Cu  Cu23  1  0.38909200  0.48569900  0.99021500  1
  Cu  Cu24  1  0.11090800  0.48569900  0.99021500  1
  Cu  Cu25  1  0.61090800  0.51430100  0.00978500  1
  Cu  Cu26  1  0.89123600  0.99203400  0.48412100  1
  Cu  Cu27  1  0.39123600  0.00796600  0.51587900  1
  Cu  Cu28  1  0.10876400  0.00796600  0.51587900  1
  Cu  Cu29  1  0.60876400  0.99203400  0.48412100  1
  Cu  Cu30  1  0.88206900  0.51706000  0.48481800  1
  Cu  Cu31  1  0.38206900  0.48294000  0.51518200  1
  Cu  Cu32  1  0.11793100  0.48294000  0.51518200  1
  Cu  Cu33  1  0.61793100  0.51706000  0.48481800  1
  Cu  Cu34  1  0.90032400  0.99181000  0.00701200  1
  Cu  Cu35  1  0.40032400  0.00819000  0.99298800  1
  Cu  Cu36  1  0.09967600  0.00819000  0.99298800  1
  Cu  Cu37  1  0.59967600  0.99181000  0.00701200  1
