# generated using pymatgen
data_CuNiC7
_symmetry_space_group_name_H-M   'P 1'
_cell_length_a   5.61130400
_cell_length_b   5.75758085
_cell_length_c   6.58621021
_cell_angle_alpha   77.93010824
_cell_angle_beta   77.66668817
_cell_angle_gamma   87.34296915
_symmetry_Int_Tables_number   1
_chemical_formula_structural   CuNiC7
_chemical_formula_sum   'Cu2 Ni2 C14'
_cell_volume   203.27777130
_cell_formula_units_Z   2
loop_
 _symmetry_equiv_pos_site_id
 _symmetry_equiv_pos_as_xyz
  1  'x, y, z'
loop_
 _atom_site_type_symbol
 _atom_site_label
 _atom_site_symmetry_multiplicity
 _atom_site_fract_x
 _atom_site_fract_y
 _atom_site_fract_z
 _atom_site_occupancy
  C  C0  1  0.38697000  0.25094500  0.50009000  1
  C  C1  1  0.61303000  0.74905500  0.49991000  1
  C  C2  1  0.02813300  0.74009900  0.81169500  1
  C  C3  1  0.97186700  0.25990100  0.18830500  1
  Ni  Ni4  1  0.83703500  0.25073100  0.72328800  1
  Ni  Ni5  1  0.16296500  0.74926900  0.27671200  1
  Cu  Cu6  1  0.42914000  0.92004400  0.82047500  1
  Cu  Cu7  1  0.57086000  0.07995600  0.17952500  1
  C  C8  1  0.77565800  0.99465900  0.84722900  1
  C  C9  1  0.22434200  0.00534100  0.15277100  1
  C  C10  1  0.94179800  0.38925700  0.86542100  1
  C  C11  1  0.05820200  0.61074300  0.13457900  1
  C  C12  1  0.60118800  0.37917000  0.66537200  1
  C  C13  1  0.39881200  0.62083000  0.33462800  1
  C  C14  1  0.97053600  0.75102100  0.48671900  1
  C  C15  1  0.02946400  0.24897900  0.51328100  1
  C  C16  1  0.35779100  0.89665700  0.70217800  1
  C  C17  1  0.64220900  0.10334300  0.29782200  1
