# generated using pymatgen
data_Cu12Ni3C2
_symmetry_space_group_name_H-M   'P 1'
_cell_length_a   11.62519300
_cell_length_b   9.82345800
_cell_length_c   19.26276614
_cell_angle_alpha   64.48268962
_cell_angle_beta   90.00000000
_cell_angle_gamma   90.00000000
_symmetry_Int_Tables_number   1
_chemical_formula_structural   Cu12Ni3C2
_chemical_formula_sum   'Cu48 Ni12 C8'
_cell_volume   1985.22098125
_cell_formula_units_Z   4
loop_
 _symmetry_equiv_pos_site_id
 _symmetry_equiv_pos_as_xyz
  1  'x, y, z'
loop_
 _atom_site_type_symbol
 _atom_site_label
 _atom_site_symmetry_multiplicity
 _atom_site_fract_x
 _atom_site_fract_y
 _atom_site_fract_z
 _atom_site_occupancy
  C  C0  1  0.77785600  0.79101400  0.10111400  1
  C  C1  1  0.26826300  0.21831600  0.21045100  1
  C  C2  1  0.76826300  0.78168400  0.28954900  1
  C  C3  1  0.27785600  0.20898600  0.39888600  1
  C  C4  1  0.72214400  0.79101400  0.60111400  1
  C  C5  1  0.23173700  0.21831600  0.71045100  1
  C  C6  1  0.73173700  0.78168400  0.78954900  1
  C  C7  1  0.22214400  0.20898600  0.89888600  1
  Ni  Ni8  1  0.23781600  0.22146400  0.05339800  1
  Ni  Ni9  1  0.69099200  0.06397500  0.13588400  1
  Ni  Ni10  1  0.86410200  0.51956900  0.25257900  1
  Ni  Ni11  1  0.36410200  0.48043100  0.24742100  1
  Ni  Ni12  1  0.19099200  0.93602500  0.36411600  1
  Ni  Ni13  1  0.73781600  0.77853600  0.44660200  1
  Ni  Ni14  1  0.26218400  0.22146400  0.55339800  1
  Ni  Ni15  1  0.80900800  0.06397500  0.63588400  1
  Ni  Ni16  1  0.63589800  0.51956900  0.75257900  1
  Ni  Ni17  1  0.13589800  0.48043100  0.74742100  1
  Ni  Ni18  1  0.30900800  0.93602500  0.86411600  1
  Ni  Ni19  1  0.76218400  0.77853600  0.94660200  1
  Cu  Cu20  1  0.67100000  0.66158700  0.04644000  1
  Cu  Cu21  1  0.12643800  0.09944400  0.01957700  1
  Cu  Cu22  1  0.62279500  0.95610800  0.07308600  1
  Cu  Cu23  1  0.15557400  0.34906900  0.09894900  1
  Cu  Cu24  1  0.68629500  0.28143100  0.08968400  1
  Cu  Cu25  1  0.94121400  0.64019800  0.14583000  1
  Cu  Cu26  1  0.35048700  0.09855300  0.14034100  1
  Cu  Cu27  1  0.43007400  0.37215100  0.18403400  1
  Cu  Cu28  1  0.85155500  0.94911900  0.16303800  1
  Cu  Cu29  1  0.37026900  0.69803300  0.20224400  1
  Cu  Cu30  1  0.69986700  0.62572400  0.22717900  1
  Cu  Cu31  1  0.61042000  0.94348300  0.24119000  1
  Cu  Cu32  1  0.11042000  0.05651700  0.25881000  1
  Cu  Cu33  1  0.19986700  0.37427600  0.27282100  1
  Cu  Cu34  1  0.87026900  0.30196700  0.29775600  1
  Cu  Cu35  1  0.93007400  0.62784900  0.31596600  1
  Cu  Cu36  1  0.35155500  0.05088100  0.33696200  1
  Cu  Cu37  1  0.44121400  0.35980200  0.35417000  1
  Cu  Cu38  1  0.85048700  0.90144700  0.35965900  1
  Cu  Cu39  1  0.18629500  0.71856900  0.41031600  1
  Cu  Cu40  1  0.65557400  0.65093100  0.40105100  1
  Cu  Cu41  1  0.12279500  0.04389200  0.42691400  1
  Cu  Cu42  1  0.17100000  0.33841300  0.45356000  1
  Cu  Cu43  1  0.62643800  0.90055600  0.48042300  1
  Cu  Cu44  1  0.37356200  0.09944400  0.51957700  1
  Cu  Cu45  1  0.82900000  0.66158700  0.54644000  1
  Cu  Cu46  1  0.87720500  0.95610800  0.57308600  1
  Cu  Cu47  1  0.34442600  0.34906900  0.59894900  1
  Cu  Cu48  1  0.81370500  0.28143100  0.58968400  1
  Cu  Cu49  1  0.14951300  0.09855300  0.64034100  1
  Cu  Cu50  1  0.55878600  0.64019800  0.64583000  1
  Cu  Cu51  1  0.64844500  0.94911900  0.66303800  1
  Cu  Cu52  1  0.06992600  0.37215100  0.68403400  1
  Cu  Cu53  1  0.12973100  0.69803300  0.70224400  1
  Cu  Cu54  1  0.80013300  0.62572400  0.72717900  1
  Cu  Cu55  1  0.88958000  0.94348300  0.74119000  1
  Cu  Cu56  1  0.38958000  0.05651700  0.75881000  1
  Cu  Cu57  1  0.30013300  0.37427600  0.77282100  1
  Cu  Cu58  1  0.62973100  0.30196700  0.79775600  1
  Cu  Cu59  1  0.14844500  0.05088100  0.83696200  1
  Cu  Cu60  1  0.56992600  0.62784900  0.81596600  1
  Cu  Cu61  1  0.64951300  0.90144700  0.85965900  1
  Cu  Cu62  1  0.05878600  0.35980200  0.85417000  1
  Cu  Cu63  1  0.31370500  0.71856900  0.91031600  1
  Cu  Cu64  1  0.84442600  0.65093100  0.90105100  1
  Cu  Cu65  1  0.37720500  0.04389200  0.92691400  1
  Cu  Cu66  1  0.87356200  0.90055600  0.98042300  1
  Cu  Cu67  1  0.32900000  0.33841300  0.95356000  1
