# generated using pymatgen
data_CuNi2C3
_symmetry_space_group_name_H-M   'P 1'
_cell_length_a   12.20790800
_cell_length_b   12.20790800
_cell_length_c   4.49138300
_cell_angle_alpha   90.00000000
_cell_angle_beta   90.00000000
_cell_angle_gamma   90.00000000
_symmetry_Int_Tables_number   1
_chemical_formula_structural   CuNi2C3
_chemical_formula_sum   'Cu8 Ni16 C24'
_cell_volume   669.36436230
_cell_formula_units_Z   8
loop_
 _symmetry_equiv_pos_site_id
 _symmetry_equiv_pos_as_xyz
  1  'x, y, z'
loop_
 _atom_site_type_symbol
 _atom_site_label
 _atom_site_symmetry_multiplicity
 _atom_site_fract_x
 _atom_site_fract_y
 _atom_site_fract_z
 _atom_site_occupancy
  C  C0  1  0.00000000  0.00000000  0.00000000  1
  C  C1  1  0.50000000  0.00000000  0.73411400  1
  C  C2  1  0.73643400  0.23643400  0.75218600  1
  C  C3  1  0.23643400  0.26356600  0.24781400  1
  C  C4  1  0.50000000  0.50000000  0.00000000  1
  C  C5  1  0.00000000  0.50000000  0.26588600  1
  C  C6  1  0.76356600  0.73643400  0.24781400  1
  C  C7  1  0.26356600  0.76356600  0.75218600  1
  C  C8  1  0.71503700  0.04036400  0.27154800  1
  C  C9  1  0.25789300  0.06969800  0.69377300  1
  C  C10  1  0.54036400  0.21503700  0.27154800  1
  C  C11  1  0.43030200  0.24210700  0.69377300  1
  C  C12  1  0.93030200  0.25789300  0.30622700  1
  C  C13  1  0.04036400  0.28496300  0.72845200  1
  C  C14  1  0.75789300  0.43030200  0.30622700  1
  C  C15  1  0.21503700  0.45963600  0.72845200  1
  C  C16  1  0.78496300  0.54036400  0.72845200  1
  C  C17  1  0.24210700  0.56969800  0.30622700  1
  C  C18  1  0.95963600  0.71503700  0.72845200  1
  C  C19  1  0.06969800  0.74210700  0.30622700  1
  C  C20  1  0.56969800  0.75789300  0.69377300  1
  C  C21  1  0.45963600  0.78496300  0.27154800  1
  C  C22  1  0.74210700  0.93030200  0.69377300  1
  C  C23  1  0.28496300  0.95963600  0.27154800  1
  Ni  Ni24  1  0.21215400  0.00298500  0.63894400  1
  Ni  Ni25  1  0.21750200  0.00701400  0.31094300  1
  Ni  Ni26  1  0.99701500  0.21215400  0.36105600  1
  Ni  Ni27  1  0.99298600  0.21750200  0.68905700  1
  Ni  Ni28  1  0.49298600  0.28249800  0.31094300  1
  Ni  Ni29  1  0.49701500  0.28784600  0.63894400  1
  Ni  Ni30  1  0.71750200  0.49298600  0.68905700  1
  Ni  Ni31  1  0.71215400  0.49701500  0.36105600  1
  Ni  Ni32  1  0.28784600  0.50298500  0.36105600  1
  Ni  Ni33  1  0.28249800  0.50701400  0.68905700  1
  Ni  Ni34  1  0.50298500  0.71215400  0.63894400  1
  Ni  Ni35  1  0.50701400  0.71750200  0.31094300  1
  Ni  Ni36  1  0.00701400  0.78249800  0.68905700  1
  Ni  Ni37  1  0.00298500  0.78784600  0.36105600  1
  Ni  Ni38  1  0.78249800  0.99298600  0.31094300  1
  Ni  Ni39  1  0.78784600  0.99701500  0.63894400  1
  Cu  Cu40  1  0.61356000  0.11356000  0.22748200  1
  Cu  Cu41  1  0.33339000  0.16661000  0.75819100  1
  Cu  Cu42  1  0.83339000  0.33339000  0.24180900  1
  Cu  Cu43  1  0.11356000  0.38644000  0.77251800  1
  Cu  Cu44  1  0.88644000  0.61356000  0.77251800  1
  Cu  Cu45  1  0.16661000  0.66661000  0.24180900  1
  Cu  Cu46  1  0.66661000  0.83339000  0.75819100  1
  Cu  Cu47  1  0.38644000  0.88644000  0.22748200  1
