# generated using pymatgen
data_CuNiC18
_symmetry_space_group_name_H-M   'P 1'
_cell_length_a   9.03689172
_cell_length_b   9.03689172
_cell_length_c   9.03689173
_cell_angle_alpha   56.07671241
_cell_angle_beta   56.07671241
_cell_angle_gamma   56.07670847
_symmetry_Int_Tables_number   1
_chemical_formula_structural   CuNiC18
_chemical_formula_sum   'Cu2 Ni2 C36'
_cell_volume   474.43120859
_cell_formula_units_Z   2
loop_
 _symmetry_equiv_pos_site_id
 _symmetry_equiv_pos_as_xyz
  1  'x, y, z'
loop_
 _atom_site_type_symbol
 _atom_site_label
 _atom_site_symmetry_multiplicity
 _atom_site_fract_x
 _atom_site_fract_y
 _atom_site_fract_z
 _atom_site_occupancy
  C  C0  1  0.07815000  0.73206600  0.33964300  1
  C  C1  1  0.33964300  0.07815000  0.73206600  1
  C  C2  1  0.73206600  0.33964300  0.07815000  1
  C  C3  1  0.26268200  0.67034400  0.91972400  1
  C  C4  1  0.67034400  0.91972400  0.26268200  1
  C  C5  1  0.91972400  0.26268200  0.67034400  1
  Ni  Ni6  1  0.85316500  0.85316500  0.85316500  1
  Ni  Ni7  1  0.65082100  0.65082100  0.65082100  1
  Cu  Cu8  1  0.34915400  0.34915400  0.34915400  1
  Cu  Cu9  1  0.14757400  0.14757400  0.14757400  1
  C  C10  1  0.75377100  0.04372800  0.45383200  1
  C  C11  1  0.04372800  0.45383200  0.75377100  1
  C  C12  1  0.45383200  0.75377100  0.04372800  1
  C  C13  1  0.53557700  0.25096000  0.96314700  1
  C  C14  1  0.96314700  0.53557700  0.25096000  1
  C  C15  1  0.25096000  0.96314700  0.53557700  1
  C  C16  1  0.79650400  0.85395500  0.44655400  1
  C  C17  1  0.53819300  0.16981300  0.48412000  1
  C  C18  1  0.16981300  0.48412000  0.53819300  1
  C  C19  1  0.85395500  0.44655400  0.79650400  1
  C  C20  1  0.44655400  0.79650400  0.85395500  1
  C  C21  1  0.80076200  0.01183800  0.60777000  1
  C  C22  1  0.14486800  0.25021900  0.88037500  1
  C  C23  1  0.01183800  0.60777000  0.80076200  1
  C  C24  1  0.48412000  0.53819300  0.16981300  1
  C  C25  1  0.25021900  0.88037500  0.14486800  1
  C  C26  1  0.60777000  0.80076200  0.01183800  1
  C  C27  1  0.88037500  0.14486800  0.25021900  1
  C  C28  1  0.12745300  0.86899600  0.73826900  1
  C  C29  1  0.38473100  0.18490400  0.00737500  1
  C  C30  1  0.73826900  0.12745300  0.86899600  1
  C  C31  1  0.49186200  0.46313000  0.84126200  1
  C  C32  1  0.00737500  0.38473100  0.18490400  1
  C  C33  1  0.86899600  0.73826900  0.12745300  1
  C  C34  1  0.18490400  0.00737500  0.38473100  1
  C  C35  1  0.53264300  0.21058200  0.15946200  1
  C  C36  1  0.15946200  0.53264300  0.21058200  1
  C  C37  1  0.84126200  0.49186200  0.46313000  1
  C  C38  1  0.46313000  0.84126200  0.49186200  1
  C  C39  1  0.21058200  0.15946200  0.53264300  1
