# generated using pymatgen
data_Cu4Ni20C43
_symmetry_space_group_name_H-M   'P 1'
_cell_length_a   6.79687800
_cell_length_b   9.63173900
_cell_length_c   11.82094958
_cell_angle_alpha   85.03542288
_cell_angle_beta   90.00000000
_cell_angle_gamma   90.00000000
_symmetry_Int_Tables_number   1
_chemical_formula_structural   Cu4Ni20C43
_chemical_formula_sum   'Cu4 Ni20 C43'
_cell_volume   770.96414021
_cell_formula_units_Z   1
loop_
 _symmetry_equiv_pos_site_id
 _symmetry_equiv_pos_as_xyz
  1  'x, y, z'
loop_
 _atom_site_type_symbol
 _atom_site_label
 _atom_site_symmetry_multiplicity
 _atom_site_fract_x
 _atom_site_fract_y
 _atom_site_fract_z
 _atom_site_occupancy
  C  C0  1  0.99388800  0.00000000  0.00000000  1
  C  C1  1  0.23325900  0.61576700  0.30199900  1
  C  C2  1  0.23325900  0.38423300  0.69800100  1
  C  C3  1  0.74733500  0.38144700  0.17559200  1
  C  C4  1  0.74733500  0.61855300  0.82440800  1
  Ni  Ni5  1  0.73006600  0.71490800  0.14264500  1
  Ni  Ni6  1  0.73006600  0.28509200  0.85735500  1
  Ni  Ni7  1  0.06010300  0.63557800  0.03406900  1
  Ni  Ni8  1  0.06010300  0.36442200  0.96593100  1
  Ni  Ni9  1  0.21707100  0.04575000  0.30983400  1
  Ni  Ni10  1  0.21707100  0.95425000  0.69016600  1
  Ni  Ni11  1  0.71882800  0.93028100  0.24515500  1
  Ni  Ni12  1  0.71882800  0.06971900  0.75484500  1
  Ni  Ni13  1  0.42291600  0.67859000  0.00778000  1
  Ni  Ni14  1  0.42291600  0.32141000  0.99222000  1
  Ni  Ni15  1  0.69383400  0.70335000  0.35716200  1
  Ni  Ni16  1  0.69383400  0.29665000  0.64283800  1
  Ni  Ni17  1  0.92576900  0.34230200  0.48363800  1
  Ni  Ni18  1  0.92576900  0.65769800  0.51636200  1
  Ni  Ni19  1  0.19553800  0.24249600  0.15462100  1
  Ni  Ni20  1  0.19553800  0.75750400  0.84537900  1
  Ni  Ni21  1  0.22687400  0.28700800  0.36077400  1
  Ni  Ni22  1  0.22687400  0.71299200  0.63922600  1
  Ni  Ni23  1  0.57307000  0.32959200  0.44533800  1
  Ni  Ni24  1  0.57307000  0.67040800  0.55466200  1
  Cu  Cu25  1  0.23128000  0.88822800  0.42614100  1
  Cu  Cu26  1  0.23128000  0.11177200  0.57385900  1
  Cu  Cu27  1  0.73115300  0.10377500  0.31835700  1
  Cu  Cu28  1  0.73115300  0.89622500  0.68164300  1
  C  C29  1  0.72188000  0.87058600  0.14346500  1
  C  C30  1  0.72188000  0.12941400  0.85653500  1
  C  C31  1  0.21938400  0.90256000  0.34344800  1
  C  C32  1  0.21938400  0.09744000  0.65655200  1
  C  C33  1  0.27002900  0.63425400  0.07724800  1
  C  C34  1  0.27002900  0.36574600  0.92275200  1
  C  C35  1  0.19875000  0.09000100  0.19678700  1
  C  C36  1  0.19875000  0.90999900  0.80321300  1
  C  C37  1  0.64374600  0.64860900  0.24970500  1
  C  C38  1  0.64374600  0.35139100  0.75029500  1
  C  C39  1  0.77149400  0.31365900  0.40966000  1
  C  C40  1  0.77149400  0.68634100  0.59034000  1
  C  C41  1  0.04523400  0.25864300  0.06447200  1
  C  C42  1  0.04523400  0.74135700  0.93552800  1
  C  C43  1  0.99267500  0.50000000  0.00000000  1
  C  C44  1  0.93885500  0.67228200  0.13213400  1
  C  C45  1  0.93885500  0.32771800  0.86786600  1
  C  C46  1  0.22932600  0.13666400  0.39299200  1
  C  C47  1  0.22932600  0.86333600  0.60700800  1
  C  C48  1  0.73024000  0.07643800  0.24101100  1
  C  C49  1  0.73024000  0.92356200  0.75898900  1
  C  C50  1  0.71383800  0.85546000  0.34737900  1
  C  C51  1  0.71383800  0.14454000  0.65262100  1
  C  C52  1  0.61762400  0.67046300  0.04347200  1
  C  C53  1  0.61762400  0.32953700  0.95652800  1
  C  C54  1  0.39270800  0.28173000  0.10585500  1
  C  C55  1  0.39270800  0.71827000  0.89414500  1
  C  C56  1  0.53387700  0.66528300  0.44241300  1
  C  C57  1  0.53387700  0.33471700  0.55758700  1
  C  C58  1  0.88050000  0.63908900  0.40575800  1
  C  C59  1  0.88050000  0.36091100  0.59424200  1
  C  C60  1  0.11767100  0.35690600  0.44970400  1
  C  C61  1  0.11767100  0.64309400  0.55029600  1
  C  C62  1  0.14324600  0.32609200  0.24918600  1
  C  C63  1  0.14324600  0.67390800  0.75081400  1
  C  C64  1  0.43729900  0.34232300  0.35982500  1
  C  C65  1  0.43729900  0.65767700  0.64017500  1
  C  C66  1  0.40324300  0.00000000  0.00000000  1
