# generated using pymatgen
data_Cu2Ni4C3
_symmetry_space_group_name_H-M   'P 1'
_cell_length_a   3.08308000
_cell_length_b   4.67009800
_cell_length_c   13.95103000
_cell_angle_alpha   90.00000000
_cell_angle_beta   90.00000000
_cell_angle_gamma   90.00000000
_symmetry_Int_Tables_number   1
_chemical_formula_structural   Cu2Ni4C3
_chemical_formula_sum   'Cu4 Ni8 C6'
_cell_volume   200.87091633
_cell_formula_units_Z   2
loop_
 _symmetry_equiv_pos_site_id
 _symmetry_equiv_pos_as_xyz
  1  'x, y, z'
loop_
 _atom_site_type_symbol
 _atom_site_label
 _atom_site_symmetry_multiplicity
 _atom_site_fract_x
 _atom_site_fract_y
 _atom_site_fract_z
 _atom_site_occupancy
  C  C0  1  0.50000000  0.69637800  0.00777200  1
  C  C1  1  0.50000000  0.74883300  0.33280700  1
  C  C2  1  0.50000000  0.80622300  0.66006500  1
  C  C3  1  0.00000000  0.19377700  0.16006500  1
  C  C4  1  0.00000000  0.30362200  0.50777200  1
  C  C5  1  0.00000000  0.25116700  0.83280700  1
  Ni  Ni6  1  0.00000000  0.93357800  0.26819900  1
  Ni  Ni7  1  0.00000000  0.99525400  0.59457000  1
  Ni  Ni8  1  0.50000000  0.06642200  0.76819900  1
  Ni  Ni9  1  0.50000000  0.00474600  0.09457000  1
  Ni  Ni10  1  0.50000000  0.47889100  0.56663900  1
  Ni  Ni11  1  0.50000000  0.44585100  0.90359000  1
  Ni  Ni12  1  0.00000000  0.52110900  0.06663900  1
  Ni  Ni13  1  0.00000000  0.55414900  0.40359000  1
  Cu  Cu14  1  0.00000000  0.92170700  0.93612800  1
  Cu  Cu15  1  0.50000000  0.07829300  0.43612800  1
  Cu  Cu16  1  0.50000000  0.42163000  0.23038800  1
  Cu  Cu17  1  0.00000000  0.57837000  0.73038800  1
