# generated using pymatgen
data_Cu8NiC6
_symmetry_space_group_name_H-M   'P 1'
_cell_length_a   5.26568916
_cell_length_b   5.26568916
_cell_length_c   14.15323333
_cell_angle_alpha   89.24878049
_cell_angle_beta   89.24878049
_cell_angle_gamma   58.77353476
_symmetry_Int_Tables_number   1
_chemical_formula_structural   Cu8NiC6
_chemical_formula_sum   'Cu16 Ni2 C12'
_cell_volume   335.54168451
_cell_formula_units_Z   2
loop_
 _symmetry_equiv_pos_site_id
 _symmetry_equiv_pos_as_xyz
  1  'x, y, z'
loop_
 _atom_site_type_symbol
 _atom_site_label
 _atom_site_symmetry_multiplicity
 _atom_site_fract_x
 _atom_site_fract_y
 _atom_site_fract_z
 _atom_site_occupancy
  C  C0  1  0.00501100  0.99659200  0.84795600  1
  C  C1  1  0.99068500  0.02245000  0.64296600  1
  C  C2  1  0.99659200  0.00501100  0.34795600  1
  C  C3  1  0.02245000  0.99068500  0.14296600  1
  C  C4  1  0.68741600  0.65407400  0.68113300  1
  C  C5  1  0.65109400  0.67343000  0.98519100  1
  C  C6  1  0.65407400  0.68741600  0.18113300  1
  C  C7  1  0.67343000  0.65109400  0.48519100  1
  C  C8  1  0.33562100  0.32918400  0.81443300  1
  C  C9  1  0.32918400  0.33562100  0.31443300  1
  C  C10  1  0.34664600  0.30252300  0.02681300  1
  C  C11  1  0.30252300  0.34664600  0.52681300  1
  Ni  Ni12  1  0.38149300  0.95124600  0.08151500  1
  Ni  Ni13  1  0.95124600  0.38149300  0.58151500  1
  Cu  Cu14  1  0.30816700  0.69449500  0.25254700  1
  Cu  Cu15  1  0.33989100  0.68138100  0.58244300  1
  Cu  Cu16  1  0.69449500  0.30816700  0.75254700  1
  Cu  Cu17  1  0.68138100  0.33989100  0.08244300  1
  Cu  Cu18  1  0.98960000  0.32568900  0.25189000  1
  Cu  Cu19  1  0.02106000  0.33791000  0.91624400  1
  Cu  Cu20  1  0.66061800  0.98971600  0.58551000  1
  Cu  Cu21  1  0.32568900  0.98960000  0.75189000  1
  Cu  Cu22  1  0.33791000  0.02106000  0.41624400  1
  Cu  Cu23  1  0.98971600  0.66061800  0.08551000  1
  Cu  Cu24  1  0.00544100  0.69335500  0.75271200  1
  Cu  Cu25  1  0.02180400  0.64793900  0.41165900  1
  Cu  Cu26  1  0.33239400  0.62387700  0.91699300  1
  Cu  Cu27  1  0.64793900  0.02180400  0.91165900  1
  Cu  Cu28  1  0.69335500  0.00544100  0.25271200  1
  Cu  Cu29  1  0.62387700  0.33239400  0.41699300  1
