# generated using pymatgen
data_Cu10NiC3
_symmetry_space_group_name_H-M   'P 1'
_cell_length_a   8.29471044
_cell_length_b   8.29471044
_cell_length_c   8.29471044
_cell_angle_alpha   60.00000000
_cell_angle_beta   60.00000000
_cell_angle_gamma   60.00000000
_symmetry_Int_Tables_number   1
_chemical_formula_structural   Cu10NiC3
_chemical_formula_sum   'Cu20 Ni2 C6'
_cell_volume   403.54195316
_cell_formula_units_Z   2
loop_
 _symmetry_equiv_pos_site_id
 _symmetry_equiv_pos_as_xyz
  1  'x, y, z'
loop_
 _atom_site_type_symbol
 _atom_site_label
 _atom_site_symmetry_multiplicity
 _atom_site_fract_x
 _atom_site_fract_y
 _atom_site_fract_z
 _atom_site_occupancy
  C  C0  1  0.23849900  0.76150100  0.23849900  1
  C  C1  1  0.76150100  0.23849900  0.23849900  1
  C  C2  1  0.76150100  0.76150100  0.23849900  1
  C  C3  1  0.76150100  0.23849900  0.76150100  1
  C  C4  1  0.23849900  0.23849900  0.76150100  1
  C  C5  1  0.23849900  0.76150100  0.76150100  1
  Ni  Ni6  1  0.75000000  0.75000000  0.75000000  1
  Ni  Ni7  1  0.25000000  0.25000000  0.25000000  1
  Cu  Cu8  1  0.88965000  0.88965000  0.33105000  1
  Cu  Cu9  1  0.88965000  0.33105000  0.88965000  1
  Cu  Cu10  1  0.33105000  0.88965000  0.88965000  1
  Cu  Cu11  1  0.88965000  0.88965000  0.88965000  1
  Cu  Cu12  1  0.11035000  0.11035000  0.66895000  1
  Cu  Cu13  1  0.11035000  0.66895000  0.11035000  1
  Cu  Cu14  1  0.66895000  0.11035000  0.11035000  1
  Cu  Cu15  1  0.11035000  0.11035000  0.11035000  1
  Cu  Cu16  1  0.50000000  0.50000000  0.17487800  1
  Cu  Cu17  1  0.82512200  0.50000000  0.17487800  1
  Cu  Cu18  1  0.50000000  0.82512200  0.17487800  1
  Cu  Cu19  1  0.82512200  0.17487800  0.50000000  1
  Cu  Cu20  1  0.50000000  0.17487800  0.50000000  1
  Cu  Cu21  1  0.50000000  0.17487800  0.82512200  1
  Cu  Cu22  1  0.17487800  0.82512200  0.50000000  1
  Cu  Cu23  1  0.17487800  0.50000000  0.82512200  1
  Cu  Cu24  1  0.17487800  0.50000000  0.50000000  1
  Cu  Cu25  1  0.50000000  0.50000000  0.82512200  1
  Cu  Cu26  1  0.50000000  0.82512200  0.50000000  1
  Cu  Cu27  1  0.82512200  0.50000000  0.50000000  1
