# generated using pymatgen
data_Cu2Ni5C3
_symmetry_space_group_name_H-M   'P 1'
_cell_length_a   11.58973578
_cell_length_b   11.58973578
_cell_length_c   7.93989600
_cell_angle_alpha   90.00000000
_cell_angle_beta   90.00000000
_cell_angle_gamma   127.85676906
_symmetry_Int_Tables_number   1
_chemical_formula_structural   Cu2Ni5C3
_chemical_formula_sum   'Cu12 Ni30 C18'
_cell_volume   842.05423678
_cell_formula_units_Z   6
loop_
 _symmetry_equiv_pos_site_id
 _symmetry_equiv_pos_as_xyz
  1  'x, y, z'
loop_
 _atom_site_type_symbol
 _atom_site_label
 _atom_site_symmetry_multiplicity
 _atom_site_fract_x
 _atom_site_fract_y
 _atom_site_fract_z
 _atom_site_occupancy
  C  C0  1  0.00000000  0.00000000  0.00000000  1
  C  C1  1  0.00000000  0.00000000  0.50000000  1
  C  C2  1  0.83948200  0.16051800  0.75000000  1
  C  C3  1  0.16051800  0.83948200  0.25000000  1
  Ni  Ni4  1  0.28832000  0.05043200  0.75000000  1
  Ni  Ni5  1  0.39971700  0.02774600  0.85529700  1
  Ni  Ni6  1  0.39971700  0.02774600  0.64470300  1
  Ni  Ni7  1  0.46856500  0.18979500  0.75000000  1
  Ni  Ni8  1  0.50777000  0.32467700  0.25000000  1
  Ni  Ni9  1  0.92193400  0.07806600  0.25000000  1
  Ni  Ni10  1  0.87323600  0.12676400  0.03094700  1
  Ni  Ni11  1  0.87323600  0.12676400  0.46905300  1
  Ni  Ni12  1  0.53363100  0.46636900  0.14658200  1
  Ni  Ni13  1  0.53363100  0.46636900  0.35341800  1
  Ni  Ni14  1  0.67532300  0.49223000  0.25000000  1
  Ni  Ni15  1  0.05043200  0.28832000  0.25000000  1
  Ni  Ni16  1  0.81020500  0.53143500  0.75000000  1
  Ni  Ni17  1  0.02774600  0.39971700  0.14470300  1
  Ni  Ni18  1  0.02774600  0.39971700  0.35529700  1
  Ni  Ni19  1  0.97225400  0.60028300  0.85529700  1
  Ni  Ni20  1  0.97225400  0.60028300  0.64470300  1
  Ni  Ni21  1  0.18979500  0.46856500  0.25000000  1
  Ni  Ni22  1  0.94956800  0.71168000  0.75000000  1
  Ni  Ni23  1  0.32467700  0.50777000  0.75000000  1
  Ni  Ni24  1  0.46636900  0.53363100  0.85341800  1
  Ni  Ni25  1  0.46636900  0.53363100  0.64658200  1
  Ni  Ni26  1  0.12676400  0.87323600  0.96905300  1
  Ni  Ni27  1  0.07806600  0.92193400  0.75000000  1
  Ni  Ni28  1  0.12676400  0.87323600  0.53094700  1
  Ni  Ni29  1  0.49223000  0.67532300  0.75000000  1
  Ni  Ni30  1  0.53143500  0.81020500  0.25000000  1
  Ni  Ni31  1  0.60028300  0.97225400  0.14470300  1
  Ni  Ni32  1  0.60028300  0.97225400  0.35529700  1
  Ni  Ni33  1  0.71168000  0.94956800  0.25000000  1
  Cu  Cu34  1  0.38904500  0.07236700  0.75000000  1
  Cu  Cu35  1  0.97125800  0.02874200  0.25000000  1
  Cu  Cu36  1  0.90369900  0.09630100  0.57112600  1
  Cu  Cu37  1  0.90369900  0.09630100  0.92887400  1
  Cu  Cu38  1  0.56353800  0.43646200  0.25000000  1
  Cu  Cu39  1  0.07236700  0.38904500  0.25000000  1
  Cu  Cu40  1  0.92763300  0.61095500  0.75000000  1
  Cu  Cu41  1  0.09630100  0.90369900  0.07112600  1
  Cu  Cu42  1  0.43646200  0.56353800  0.75000000  1
  Cu  Cu43  1  0.09630100  0.90369900  0.42887400  1
  Cu  Cu44  1  0.02874200  0.97125800  0.75000000  1
  Cu  Cu45  1  0.61095500  0.92763300  0.25000000  1
  C  C46  1  0.41233700  0.06476900  0.25000000  1
  C  C47  1  0.59304400  0.40695600  0.75000000  1
  C  C48  1  0.75488100  0.24511900  0.52326700  1
  C  C49  1  0.75488100  0.24511900  0.97673300  1
  C  C50  1  0.23840100  0.23840100  0.00000000  1
  C  C51  1  0.23840100  0.23840100  0.50000000  1
  C  C52  1  0.06476900  0.41233700  0.75000000  1
  C  C53  1  0.93523100  0.58766300  0.25000000  1
  C  C54  1  0.40695600  0.59304400  0.25000000  1
  C  C55  1  0.24511900  0.75488100  0.02326700  1
  C  C56  1  0.24511900  0.75488100  0.47673300  1
  C  C57  1  0.58766300  0.93523100  0.75000000  1
  C  C58  1  0.76159900  0.76159900  0.00000000  1
  C  C59  1  0.76159900  0.76159900  0.50000000  1
