# generated using pymatgen
data_Cu3NiC4
_symmetry_space_group_name_H-M   'P 1'
_cell_length_a   7.54896400
_cell_length_b   7.95446800
_cell_length_c   14.81702300
_cell_angle_alpha   90.00000000
_cell_angle_beta   90.00000000
_cell_angle_gamma   90.00000000
_symmetry_Int_Tables_number   1
_chemical_formula_structural   Cu3NiC4
_chemical_formula_sum   'Cu24 Ni8 C32'
_cell_volume   889.73248703
_cell_formula_units_Z   8
loop_
 _symmetry_equiv_pos_site_id
 _symmetry_equiv_pos_as_xyz
  1  'x, y, z'
loop_
 _atom_site_type_symbol
 _atom_site_label
 _atom_site_symmetry_multiplicity
 _atom_site_fract_x
 _atom_site_fract_y
 _atom_site_fract_z
 _atom_site_occupancy
  C  C0  1  0.13059200  0.85794400  0.58272800  1
  C  C1  1  0.13059200  0.64205600  0.08272800  1
  C  C2  1  0.36940800  0.35794400  0.58272800  1
  C  C3  1  0.36940800  0.14205600  0.08272800  1
  C  C4  1  0.63059200  0.85794400  0.91727200  1
  C  C5  1  0.63059200  0.64205600  0.41727200  1
  C  C6  1  0.86940800  0.35794400  0.91727200  1
  C  C7  1  0.86940800  0.14205600  0.41727200  1
  C  C8  1  0.07408000  0.47336000  0.72474500  1
  C  C9  1  0.07408000  0.02664000  0.22474500  1
  C  C10  1  0.09050200  0.10200700  0.80860200  1
  C  C11  1  0.09050200  0.39799300  0.30860200  1
  C  C12  1  0.40949800  0.60200700  0.80860200  1
  C  C13  1  0.40949800  0.89799300  0.30860200  1
  C  C14  1  0.42592000  0.52664000  0.22474500  1
  C  C15  1  0.42592000  0.97336000  0.72474500  1
  C  C16  1  0.57408000  0.47336000  0.77525500  1
  C  C17  1  0.57408000  0.02664000  0.27525500  1
  C  C18  1  0.59050200  0.10200700  0.69139800  1
  C  C19  1  0.59050200  0.39799300  0.19139800  1
  C  C20  1  0.90949800  0.60200700  0.69139800  1
  C  C21  1  0.90949800  0.89799300  0.19139800  1
  C  C22  1  0.92592000  0.52664000  0.27525500  1
  C  C23  1  0.92592000  0.97336000  0.77525500  1
  C  C24  1  0.12348200  0.84350600  0.86301800  1
  C  C25  1  0.12348200  0.65649400  0.36301800  1
  C  C26  1  0.37651800  0.34350600  0.86301800  1
  C  C27  1  0.37651800  0.15649400  0.36301800  1
  C  C28  1  0.62348200  0.84350600  0.63698200  1
  C  C29  1  0.62348200  0.65649400  0.13698200  1
  C  C30  1  0.87651800  0.34350600  0.63698200  1
  C  C31  1  0.87651800  0.15649400  0.13698200  1
  Ni  Ni32  1  0.00349400  0.00926400  0.82915800  1
  Ni  Ni33  1  0.00349400  0.49073600  0.32915800  1
  Ni  Ni34  1  0.49650600  0.50926400  0.82915800  1
  Ni  Ni35  1  0.49650600  0.99073600  0.32915800  1
  Ni  Ni36  1  0.50349400  0.00926400  0.67084200  1
  Ni  Ni37  1  0.50349400  0.49073600  0.17084200  1
  Ni  Ni38  1  0.99650600  0.50926400  0.67084200  1
  Ni  Ni39  1  0.99650600  0.99073600  0.17084200  1
  Cu  Cu40  1  0.00746600  0.21422300  0.61334700  1
  Cu  Cu41  1  0.00746600  0.28577700  0.11334700  1
  Cu  Cu42  1  0.22618700  0.90397800  0.94073200  1
  Cu  Cu43  1  0.22618700  0.59602200  0.44073200  1
  Cu  Cu44  1  0.23946100  0.79213700  0.78693900  1
  Cu  Cu45  1  0.23946100  0.70786300  0.28693900  1
  Cu  Cu46  1  0.26053900  0.20786300  0.28693900  1
  Cu  Cu47  1  0.26053900  0.29213700  0.78693900  1
  Cu  Cu48  1  0.27381300  0.40397800  0.94073200  1
  Cu  Cu49  1  0.27381300  0.09602200  0.44073200  1
  Cu  Cu50  1  0.49253400  0.71422300  0.61334700  1
  Cu  Cu51  1  0.49253400  0.78577700  0.11334700  1
  Cu  Cu52  1  0.50746600  0.21422300  0.88665300  1
  Cu  Cu53  1  0.50746600  0.28577700  0.38665300  1
  Cu  Cu54  1  0.72618700  0.90397800  0.55926800  1
  Cu  Cu55  1  0.72618700  0.59602200  0.05926800  1
  Cu  Cu56  1  0.73946100  0.79213700  0.71306100  1
  Cu  Cu57  1  0.73946100  0.70786300  0.21306100  1
  Cu  Cu58  1  0.76053900  0.29213700  0.71306100  1
  Cu  Cu59  1  0.76053900  0.20786300  0.21306100  1
  Cu  Cu60  1  0.77381300  0.40397800  0.55926800  1
  Cu  Cu61  1  0.77381300  0.09602200  0.05926800  1
  Cu  Cu62  1  0.99253400  0.71422300  0.88665300  1
  Cu  Cu63  1  0.99253400  0.78577700  0.38665300  1
