# generated using pymatgen
data_Cu4Ni2C11
_symmetry_space_group_name_H-M   'P 1'
_cell_length_a   8.39452300
_cell_length_b   6.52054400
_cell_length_c   13.52350429
_cell_angle_alpha   80.25969695
_cell_angle_beta   90.00000000
_cell_angle_gamma   90.00000000
_symmetry_Int_Tables_number   1
_chemical_formula_structural   Cu4Ni2C11
_chemical_formula_sum   'Cu16 Ni8 C44'
_cell_volume   729.56342241
_cell_formula_units_Z   4
loop_
 _symmetry_equiv_pos_site_id
 _symmetry_equiv_pos_as_xyz
  1  'x, y, z'
loop_
 _atom_site_type_symbol
 _atom_site_label
 _atom_site_symmetry_multiplicity
 _atom_site_fract_x
 _atom_site_fract_y
 _atom_site_fract_z
 _atom_site_occupancy
  C  C0  1  0.35924800  0.62659500  0.10824000  1
  C  C1  1  0.85924800  0.37340500  0.39176000  1
  C  C2  1  0.64075200  0.37340500  0.89176000  1
  C  C3  1  0.14075200  0.62659500  0.60824000  1
  C  C4  1  0.40156100  0.77459900  0.19447400  1
  C  C5  1  0.90156100  0.22540100  0.30552600  1
  C  C6  1  0.59843900  0.22540100  0.80552600  1
  C  C7  1  0.09843900  0.77459900  0.69447400  1
  C  C8  1  0.21780400  0.64316500  0.19787400  1
  C  C9  1  0.71780400  0.35683500  0.30212600  1
  C  C10  1  0.78219600  0.35683500  0.80212600  1
  C  C11  1  0.28219600  0.64316500  0.69787400  1
  C  C12  1  0.40980200  0.51027300  0.22444100  1
  C  C13  1  0.90980200  0.48972700  0.27555900  1
  C  C14  1  0.59019800  0.48972700  0.77555900  1
  C  C15  1  0.09019800  0.51027300  0.72444100  1
  C  C16  1  0.71108000  0.58981700  0.11243200  1
  C  C17  1  0.21108000  0.41018300  0.38756800  1
  C  C18  1  0.28892000  0.41018300  0.88756800  1
  C  C19  1  0.78892000  0.58981700  0.61243200  1
  C  C20  1  0.67862300  0.82289500  0.14446400  1
  C  C21  1  0.17862300  0.17710500  0.35553600  1
  C  C22  1  0.32137700  0.17710500  0.85553600  1
  C  C23  1  0.82137700  0.82289500  0.64446400  1
  C  C24  1  0.95086900  0.71526700  0.16941100  1
  C  C25  1  0.45086900  0.28473300  0.33058900  1
  C  C26  1  0.04913100  0.28473300  0.83058900  1
  C  C27  1  0.54913100  0.71526700  0.66941100  1
  C  C28  1  0.74284900  0.80021100  0.03025400  1
  C  C29  1  0.24284900  0.19978900  0.46974600  1
  C  C30  1  0.25715100  0.19978900  0.96974600  1
  C  C31  1  0.75715100  0.80021100  0.53025400  1
  C  C32  1  0.07092700  0.13072700  0.21122900  1
  C  C33  1  0.57092700  0.86927300  0.28877100  1
  C  C34  1  0.92907300  0.86927300  0.78877100  1
  C  C35  1  0.42907300  0.13072700  0.71122900  1
  C  C36  1  0.04214800  0.89050000  0.25416700  1
  C  C37  1  0.54214800  0.10950000  0.24583300  1
  C  C38  1  0.95785200  0.10950000  0.74583300  1
  C  C39  1  0.45785200  0.89050000  0.75416700  1
  C  C40  1  0.10838800  0.78936200  0.97733300  1
  C  C41  1  0.60838800  0.21063800  0.52266700  1
  C  C42  1  0.89161200  0.21063800  0.02266700  1
  C  C43  1  0.39161200  0.78936200  0.47733300  1
  Ni  Ni44  1  0.34651600  0.63616300  0.18270400  1
  Ni  Ni45  1  0.84651600  0.36383700  0.31729600  1
  Ni  Ni46  1  0.65348400  0.36383700  0.81729600  1
  Ni  Ni47  1  0.15348400  0.63616300  0.68270400  1
  Ni  Ni48  1  0.75210500  0.74000100  0.10471900  1
  Ni  Ni49  1  0.25210500  0.25999900  0.39528100  1
  Ni  Ni50  1  0.24789500  0.25999900  0.89528100  1
  Ni  Ni51  1  0.74789500  0.74000100  0.60471900  1
  Cu  Cu52  1  0.23426200  0.70059600  0.46425500  1
  Cu  Cu53  1  0.73426200  0.29940400  0.03574500  1
  Cu  Cu54  1  0.76573800  0.29940400  0.53574500  1
  Cu  Cu55  1  0.26573800  0.70059600  0.96425500  1
  Cu  Cu56  1  0.03828400  0.04192500  0.27337400  1
  Cu  Cu57  1  0.53828400  0.95807500  0.22662600  1
  Cu  Cu58  1  0.96171600  0.95807500  0.72662600  1
  Cu  Cu59  1  0.46171600  0.04192500  0.77337400  1
  Cu  Cu60  1  0.04313300  0.69045700  0.21600200  1
  Cu  Cu61  1  0.54313300  0.30954300  0.28399800  1
  Cu  Cu62  1  0.95686700  0.30954300  0.78399800  1
  Cu  Cu63  1  0.45686700  0.69045700  0.71600200  1
  Cu  Cu64  1  0.02409200  0.29337400  0.07275600  1
  Cu  Cu65  1  0.52409200  0.70662600  0.42724400  1
  Cu  Cu66  1  0.97590800  0.70662600  0.92724400  1
  Cu  Cu67  1  0.47590800  0.29337400  0.57275600  1
