# generated using pymatgen
data_Cu4Ni2C7
_symmetry_space_group_name_H-M   'P 1'
_cell_length_a   5.57149400
_cell_length_b   9.70559618
_cell_length_c   11.41486571
_cell_angle_alpha   90.46461108
_cell_angle_beta   102.58785289
_cell_angle_gamma   95.66455681
_symmetry_Int_Tables_number   1
_chemical_formula_structural   Cu4Ni2C7
_chemical_formula_sum   'Cu16 Ni8 C28'
_cell_volume   599.19755082
_cell_formula_units_Z   4
loop_
 _symmetry_equiv_pos_site_id
 _symmetry_equiv_pos_as_xyz
  1  'x, y, z'
loop_
 _atom_site_type_symbol
 _atom_site_label
 _atom_site_symmetry_multiplicity
 _atom_site_fract_x
 _atom_site_fract_y
 _atom_site_fract_z
 _atom_site_occupancy
  C  C0  1  0.52584000  0.83505000  0.49122000  1
  C  C1  1  0.47416000  0.16495000  0.50878000  1
  C  C2  1  0.10664300  0.29394000  0.01906400  1
  C  C3  1  0.89335700  0.70606000  0.98093600  1
  C  C4  1  0.20603700  0.82493300  0.81189300  1
  C  C5  1  0.15747100  0.39567900  0.78994700  1
  C  C6  1  0.49506600  0.85089000  0.90799200  1
  C  C7  1  0.41860200  0.50456600  0.85523700  1
  C  C8  1  0.24090100  0.96106400  0.10018500  1
  C  C9  1  0.31062500  0.83261700  0.20405300  1
  C  C10  1  0.35094200  0.44782400  0.40827800  1
  C  C11  1  0.29656400  0.41545400  0.25240900  1
  C  C12  1  0.70343600  0.58454600  0.74759100  1
  C  C13  1  0.64905800  0.55217600  0.59172200  1
  C  C14  1  0.68937500  0.16738300  0.79594700  1
  C  C15  1  0.75909900  0.03893600  0.89981500  1
  C  C16  1  0.58139800  0.49543400  0.14476300  1
  C  C17  1  0.50493400  0.14911000  0.09200800  1
  C  C18  1  0.84252900  0.60432100  0.21005300  1
  C  C19  1  0.79396300  0.17506700  0.18810700  1
  Ni  Ni20  1  0.05502700  0.98109600  0.64888800  1
  Ni  Ni21  1  0.03030500  0.33452000  0.57179700  1
  Ni  Ni22  1  0.38082100  0.46486700  0.67540400  1
  Ni  Ni23  1  0.42321200  0.00214000  0.78492500  1
  Ni  Ni24  1  0.57678800  0.99786000  0.21507500  1
  Ni  Ni25  1  0.61917900  0.53513300  0.32459600  1
  Ni  Ni26  1  0.96969500  0.66548000  0.42820300  1
  Ni  Ni27  1  0.94497300  0.01890400  0.35111200  1
  Cu  Cu28  1  0.16588400  0.72727500  0.43676900  1
  Cu  Cu29  1  0.37225400  0.88238000  0.83634400  1
  Cu  Cu30  1  0.30800900  0.45843500  0.77944400  1
  Cu  Cu31  1  0.24598600  0.40001400  0.57270800  1
  Cu  Cu32  1  0.14269300  0.07670000  0.39032600  1
  Cu  Cu33  1  0.26963800  0.05020000  0.68898700  1
  Cu  Cu34  1  0.36262300  0.92310300  0.16868700  1
  Cu  Cu35  1  0.40493000  0.46206100  0.32868000  1
  Cu  Cu36  1  0.59507000  0.53793900  0.67132000  1
  Cu  Cu37  1  0.63737700  0.07689700  0.83131300  1
  Cu  Cu38  1  0.73036200  0.94980000  0.31101300  1
  Cu  Cu39  1  0.85730700  0.92330000  0.60967400  1
  Cu  Cu40  1  0.75401400  0.59998600  0.42729200  1
  Cu  Cu41  1  0.69199100  0.54156500  0.22055600  1
  Cu  Cu42  1  0.62774600  0.11762000  0.16365600  1
  Cu  Cu43  1  0.83411600  0.27272500  0.56323100  1
  C  C44  1  0.05049300  0.66061700  0.08431400  1
  C  C45  1  0.01974900  0.32170700  0.12417100  1
  C  C46  1  0.11862000  0.14812700  0.00692900  1
  C  C47  1  0.65112200  0.63839500  0.96800500  1
  C  C48  1  0.34887800  0.36160500  0.03199500  1
  C  C49  1  0.88138000  0.85187300  0.99307100  1
  C  C50  1  0.98025100  0.67829300  0.87582900  1
  C  C51  1  0.94950700  0.33938300  0.91568600  1
