# generated using pymatgen
data_Cu3NiC37
_symmetry_space_group_name_H-M   'P 1'
_cell_length_a   9.72382571
_cell_length_b   9.72382571
_cell_length_c   12.29869200
_cell_angle_alpha   90.00000000
_cell_angle_beta   90.00000000
_cell_angle_gamma   119.99999801
_symmetry_Int_Tables_number   1
_chemical_formula_structural   Cu3NiC37
_chemical_formula_sum   'Cu6 Ni2 C74'
_cell_volume   1007.07982909
_cell_formula_units_Z   2
loop_
 _symmetry_equiv_pos_site_id
 _symmetry_equiv_pos_as_xyz
  1  'x, y, z'
loop_
 _atom_site_type_symbol
 _atom_site_label
 _atom_site_symmetry_multiplicity
 _atom_site_fract_x
 _atom_site_fract_y
 _atom_site_fract_z
 _atom_site_occupancy
  Ni  Ni0  1  0.00000000  0.00000000  0.25000000  1
  Ni  Ni1  1  0.00000000  0.00000000  0.75000000  1
  Cu  Cu2  1  0.16662200  0.70959800  0.75000000  1
  Cu  Cu3  1  0.54297600  0.83337800  0.75000000  1
  Cu  Cu4  1  0.29040200  0.45702400  0.75000000  1
  Cu  Cu5  1  0.83337800  0.29040200  0.25000000  1
  Cu  Cu6  1  0.45702400  0.16662200  0.25000000  1
  Cu  Cu7  1  0.70959800  0.54297600  0.25000000  1
  C  C8  1  0.33333300  0.66666700  0.02396500  1
  C  C9  1  0.66666700  0.33333300  0.52396500  1
  C  C10  1  0.66666700  0.33333300  0.97603500  1
  C  C11  1  0.33333300  0.66666700  0.47603500  1
  C  C12  1  0.42061100  0.04983700  0.81397100  1
  C  C13  1  0.62922700  0.57938900  0.81397100  1
  C  C14  1  0.95016300  0.37077300  0.81397100  1
  C  C15  1  0.57938900  0.95016300  0.31397100  1
  C  C16  1  0.37077300  0.42061100  0.31397100  1
  C  C17  1  0.04983700  0.62922700  0.31397100  1
  C  C18  1  0.57938900  0.95016300  0.18602900  1
  C  C19  1  0.37077300  0.42061100  0.18602900  1
  C  C20  1  0.04983700  0.62922700  0.18602900  1
  C  C21  1  0.42061100  0.04983700  0.68602900  1
  C  C22  1  0.62922700  0.57938900  0.68602900  1
  C  C23  1  0.95016300  0.37077300  0.68602900  1
  C  C24  1  0.74790000  0.66434600  0.04877300  1
  C  C25  1  0.91644600  0.25210000  0.04877300  1
  C  C26  1  0.33565400  0.08355400  0.04877300  1
  C  C27  1  0.25210000  0.33565400  0.54877300  1
  C  C28  1  0.08355400  0.74790000  0.54877300  1
  C  C29  1  0.66434600  0.91644600  0.54877300  1
  C  C30  1  0.25210000  0.33565400  0.95122700  1
  C  C31  1  0.08355400  0.74790000  0.95122700  1
  C  C32  1  0.66434600  0.91644600  0.95122700  1
  C  C33  1  0.74790000  0.66434600  0.45122700  1
  C  C34  1  0.91644600  0.25210000  0.45122700  1
  C  C35  1  0.33565400  0.08355400  0.45122700  1
  C  C36  1  0.67611500  0.76087400  0.10014400  1
  C  C37  1  0.08475800  0.32388500  0.10014400  1
  C  C38  1  0.23912600  0.91524200  0.10014400  1
  C  C39  1  0.32388500  0.23912600  0.60014400  1
  C  C40  1  0.91524200  0.67611500  0.60014400  1
  C  C41  1  0.76087400  0.08475800  0.60014400  1
  C  C42  1  0.32388500  0.23912600  0.89985600  1
  C  C43  1  0.91524200  0.67611500  0.89985600  1
  C  C44  1  0.76087400  0.08475800  0.89985600  1
  C  C45  1  0.67611500  0.76087400  0.39985600  1
  C  C46  1  0.08475800  0.32388500  0.39985600  1
  C  C47  1  0.23912600  0.91524200  0.39985600  1
  C  C48  1  0.33333300  0.66666700  0.87914600  1
  C  C49  1  0.66666700  0.33333300  0.37914600  1
  C  C50  1  0.66666700  0.33333300  0.12085400  1
  C  C51  1  0.33333300  0.66666700  0.62085400  1
  C  C52  1  0.18621000  0.71466700  0.07106500  1
  C  C53  1  0.52845800  0.81379000  0.07106500  1
  C  C54  1  0.28533300  0.47154200  0.07106500  1
  C  C55  1  0.81379000  0.28533300  0.57106500  1
  C  C56  1  0.47154200  0.18621000  0.57106500  1
  C  C57  1  0.71466700  0.52845800  0.57106500  1
  C  C58  1  0.81379000  0.28533300  0.92893500  1
  C  C59  1  0.47154200  0.18621000  0.92893500  1
  C  C60  1  0.71466700  0.52845800  0.92893500  1
  C  C61  1  0.18621000  0.71466700  0.42893500  1
  C  C62  1  0.52845800  0.81379000  0.42893500  1
  C  C63  1  0.28533300  0.47154200  0.42893500  1
  C  C64  1  0.39347000  0.97924500  0.75000000  1
  C  C65  1  0.58577500  0.60653000  0.75000000  1
  C  C66  1  0.02075500  0.41422500  0.75000000  1
  C  C67  1  0.60653000  0.02075500  0.25000000  1
  C  C68  1  0.41422500  0.39347000  0.25000000  1
  C  C69  1  0.97924500  0.58577500  0.25000000  1
  C  C70  1  0.75676900  0.72876300  0.11298300  1
  C  C71  1  0.97199300  0.24323100  0.11298300  1
  C  C72  1  0.27123700  0.02800700  0.11298300  1
  C  C73  1  0.24323100  0.27123700  0.61298300  1
  C  C74  1  0.02800700  0.75676900  0.61298300  1
  C  C75  1  0.72876300  0.97199300  0.61298300  1
  C  C76  1  0.24323100  0.27123700  0.88701700  1
  C  C77  1  0.02800700  0.75676900  0.88701700  1
  C  C78  1  0.72876300  0.97199300  0.88701700  1
  C  C79  1  0.75676900  0.72876300  0.38701700  1
  C  C80  1  0.97199300  0.24323100  0.38701700  1
  C  C81  1  0.27123700  0.02800700  0.38701700  1
