# generated using pymatgen
data_Cu2Ni6C5
_symmetry_space_group_name_H-M   'P 1'
_cell_length_a   5.63442900
_cell_length_b   5.69357616
_cell_length_c   15.32673601
_cell_angle_alpha   89.95274982
_cell_angle_beta   89.96528998
_cell_angle_gamma   89.89176987
_symmetry_Int_Tables_number   1
_chemical_formula_structural   Cu2Ni6C5
_chemical_formula_sum   'Cu6 Ni18 C15'
_cell_volume   491.68133284
_cell_formula_units_Z   3
loop_
 _symmetry_equiv_pos_site_id
 _symmetry_equiv_pos_as_xyz
  1  'x, y, z'
loop_
 _atom_site_type_symbol
 _atom_site_label
 _atom_site_symmetry_multiplicity
 _atom_site_fract_x
 _atom_site_fract_y
 _atom_site_fract_z
 _atom_site_occupancy
  C  C0  1  0.99501400  0.49335300  0.62512500  1
  C  C1  1  0.50400600  0.99444900  0.37537400  1
  C  C2  1  0.50474800  0.99521200  0.87490200  1
  C  C3  1  0.49443500  0.00370800  0.12428400  1
  C  C4  1  0.49441200  0.00156900  0.62420000  1
  C  C5  1  0.99502600  0.50068700  0.37057800  1
  C  C6  1  0.02604300  0.50005300  0.87855800  1
  C  C7  1  0.99615500  0.99667400  0.00531000  1
  C  C8  1  0.50228600  0.50083300  0.24443600  1
  C  C9  1  0.49080800  0.48825800  0.75126900  1
  C  C10  1  0.50159500  0.50194500  0.00581100  1
  C  C11  1  0.51096100  0.48825300  0.49825500  1
  C  C12  1  0.00352800  0.99670200  0.24474000  1
  C  C13  1  0.98588600  0.01044500  0.49848900  1
  C  C14  1  0.01383900  0.01022700  0.75148500  1
  Ni  Ni15  1  0.00022400  0.93178100  0.37427300  1
  Ni  Ni16  1  0.00329400  0.93254200  0.87582400  1
  Ni  Ni17  1  0.75622000  0.25743700  0.48234300  1
  Ni  Ni18  1  0.75636400  0.25310000  0.27120600  1
  Ni  Ni19  1  0.77109400  0.27191000  0.76940600  1
  Ni  Ni20  1  0.72728000  0.77059500  0.00503400  1
  Ni  Ni21  1  0.75021300  0.74832600  0.50858800  1
  Ni  Ni22  1  0.50412700  0.43584000  0.12514400  1
  Ni  Ni23  1  0.50499200  0.44856700  0.62501900  1
  Ni  Ni24  1  0.48173600  0.55180400  0.87617000  1
  Ni  Ni25  1  0.49492800  0.55018300  0.37411000  1
  Ni  Ni26  1  0.24000000  0.25831500  0.48269400  1
  Ni  Ni27  1  0.25515800  0.24200400  0.98105000  1
  Ni  Ni28  1  0.25571500  0.24686400  0.76510000  1
  Ni  Ni29  1  0.26226200  0.75996900  0.24437200  1
  Ni  Ni30  1  0.23754700  0.73788500  0.73971500  1
  Ni  Ni31  1  0.99634200  0.04680300  0.62504100  1
  Ni  Ni32  1  0.99982900  0.05883300  0.12512600  1
  Cu  Cu33  1  0.75599000  0.25697400  0.97826700  1
  Cu  Cu34  1  0.73695500  0.76297100  0.73738800  1
  Cu  Cu35  1  0.74681200  0.75676500  0.23700800  1
  Cu  Cu36  1  0.25559300  0.24506800  0.26921600  1
  Cu  Cu37  1  0.24863900  0.74995900  0.51448900  1
  Cu  Cu38  1  0.24094100  0.74293900  0.01560000  1
