# generated using pymatgen
data_Cu3Ni2C23
_symmetry_space_group_name_H-M   'P 1'
_cell_length_a   5.94516402
_cell_length_b   5.94516402
_cell_length_c   9.44971547
_cell_angle_alpha   89.35284289
_cell_angle_beta   89.35284289
_cell_angle_gamma   59.96931031
_symmetry_Int_Tables_number   1
_chemical_formula_structural   Cu3Ni2C23
_chemical_formula_sum   'Cu3 Ni2 C23'
_cell_volume   289.13837076
_cell_formula_units_Z   1
loop_
 _symmetry_equiv_pos_site_id
 _symmetry_equiv_pos_as_xyz
  1  'x, y, z'
loop_
 _atom_site_type_symbol
 _atom_site_label
 _atom_site_symmetry_multiplicity
 _atom_site_fract_x
 _atom_site_fract_y
 _atom_site_fract_z
 _atom_site_occupancy
  C  C0  1  0.66786200  0.66786200  0.09977600  1
  C  C1  1  0.99917300  0.99917300  0.00870200  1
  C  C2  1  0.99955800  0.99955800  0.50732400  1
  C  C3  1  0.33375000  0.33375000  0.60252800  1
  Ni  Ni4  1  0.66623200  0.66623200  0.50568400  1
  Ni  Ni5  1  0.33096700  0.33096700  0.00358500  1
  Cu  Cu6  1  0.34414000  0.82848700  0.78578800  1
  Cu  Cu7  1  0.82848700  0.34414000  0.78578800  1
  Cu  Cu8  1  0.17272800  0.17272800  0.28685000  1
  C  C9  1  0.82725800  0.82725800  0.77954400  1
  C  C10  1  0.17661600  0.65368700  0.28114000  1
  C  C11  1  0.65368700  0.17661600  0.28114000  1
  C  C12  1  0.34967300  0.82686300  0.40984400  1
  C  C13  1  0.52315000  0.52315000  0.65763200  1
  C  C14  1  0.66930400  0.66930400  0.89435600  1
  C  C15  1  0.99928600  0.99928600  0.69616400  1
  C  C16  1  0.99957000  0.99957000  0.19851700  1
  C  C17  1  0.82686300  0.34967300  0.40984400  1
  C  C18  1  0.51725200  0.95693900  0.65256300  1
  C  C19  1  0.95693900  0.51725200  0.65256300  1
  C  C20  1  0.17332600  0.17332600  0.90699300  1
  C  C21  1  0.82372700  0.82372700  0.41372700  1
  C  C22  1  0.04544600  0.47395900  0.15315400  1
  C  C23  1  0.47395900  0.04544600  0.15315400  1
  C  C24  1  0.33539700  0.33539700  0.39561800  1
  C  C25  1  0.17717500  0.64867000  0.91071600  1
  C  C26  1  0.48007300  0.48007300  0.14873000  1
  C  C27  1  0.64867000  0.17717500  0.91071600  1
