# generated using pymatgen
data_Cu2Ni4C
_symmetry_space_group_name_H-M   'P 1'
_cell_length_a   6.45046400
_cell_length_b   7.48164000
_cell_length_c   13.46956402
_cell_angle_alpha   83.53150012
_cell_angle_beta   90.00000000
_cell_angle_gamma   90.00000000
_symmetry_Int_Tables_number   1
_chemical_formula_structural   Cu2Ni4C
_chemical_formula_sum   'Cu16 Ni32 C8'
_cell_volume   645.90362240
_cell_formula_units_Z   8
loop_
 _symmetry_equiv_pos_site_id
 _symmetry_equiv_pos_as_xyz
  1  'x, y, z'
loop_
 _atom_site_type_symbol
 _atom_site_label
 _atom_site_symmetry_multiplicity
 _atom_site_fract_x
 _atom_site_fract_y
 _atom_site_fract_z
 _atom_site_occupancy
  C  C0  1  0.77737200  0.24485000  0.81468100  1
  C  C1  1  0.72262800  0.24485000  0.31468100  1
  C  C2  1  0.27737200  0.75515000  0.68531900  1
  C  C3  1  0.22262800  0.75515000  0.18531900  1
  C  C4  1  0.35703000  0.24383300  0.65770100  1
  C  C5  1  0.14297000  0.24383300  0.15770100  1
  C  C6  1  0.85703000  0.75616700  0.84229900  1
  C  C7  1  0.64297000  0.75616700  0.34229900  1
  Ni  Ni8  1  0.10634700  0.04435600  0.57727500  1
  Ni  Ni9  1  0.39365300  0.04435600  0.07727500  1
  Ni  Ni10  1  0.32682700  0.05671700  0.51831700  1
  Ni  Ni11  1  0.17317300  0.05671700  0.01831700  1
  Ni  Ni12  1  0.71143800  0.12280200  0.63828500  1
  Ni  Ni13  1  0.78856200  0.12280200  0.13828500  1
  Ni  Ni14  1  0.15832900  0.14127200  0.81844000  1
  Ni  Ni15  1  0.34167100  0.14127200  0.31844000  1
  Ni  Ni16  1  0.33643500  0.28509800  0.84097400  1
  Ni  Ni17  1  0.16356500  0.28509800  0.34097400  1
  Ni  Ni18  1  0.71164800  0.33062700  0.58859100  1
  Ni  Ni19  1  0.78835200  0.33062700  0.08859100  1
  Ni  Ni20  1  0.59233400  0.52754400  0.89956400  1
  Ni  Ni21  1  0.90766600  0.52754400  0.39956400  1
  Ni  Ni22  1  0.79861700  0.48777500  0.96624000  1
  Ni  Ni23  1  0.70138300  0.48777500  0.46624000  1
  Ni  Ni24  1  0.29861700  0.51222500  0.53376000  1
  Ni  Ni25  1  0.20138300  0.51222500  0.03376000  1
  Ni  Ni26  1  0.09233400  0.47245600  0.60043600  1
  Ni  Ni27  1  0.40766600  0.47245600  0.10043600  1
  Ni  Ni28  1  0.21164800  0.66937300  0.91140900  1
  Ni  Ni29  1  0.28835200  0.66937300  0.41140900  1
  Ni  Ni30  1  0.83643500  0.71490200  0.65902600  1
  Ni  Ni31  1  0.66356500  0.71490200  0.15902600  1
  Ni  Ni32  1  0.65832900  0.85872800  0.68156000  1
  Ni  Ni33  1  0.84167100  0.85872800  0.18156000  1
  Ni  Ni34  1  0.21143800  0.87719800  0.86171500  1
  Ni  Ni35  1  0.28856200  0.87719800  0.36171500  1
  Ni  Ni36  1  0.82682700  0.94328300  0.98168300  1
  Ni  Ni37  1  0.67317300  0.94328300  0.48168300  1
  Ni  Ni38  1  0.60634700  0.95564400  0.92272500  1
  Ni  Ni39  1  0.89365300  0.95564400  0.42272500  1
  Cu  Cu40  1  0.26365100  0.04466000  0.58841500  1
  Cu  Cu41  1  0.23634900  0.04466000  0.08841500  1
  Cu  Cu42  1  0.30499700  0.18308900  0.79856500  1
  Cu  Cu43  1  0.19500300  0.18308900  0.29856500  1
  Cu  Cu44  1  0.65674000  0.24844900  0.64849100  1
  Cu  Cu45  1  0.84326000  0.24844900  0.14849100  1
  Cu  Cu46  1  0.25040000  0.48159600  0.60618200  1
  Cu  Cu47  1  0.24960000  0.48159600  0.10618200  1
  Cu  Cu48  1  0.75040000  0.51840400  0.89381800  1
  Cu  Cu49  1  0.74960000  0.51840400  0.39381800  1
  Cu  Cu50  1  0.15674000  0.75155100  0.85150900  1
  Cu  Cu51  1  0.34326000  0.75155100  0.35150900  1
  Cu  Cu52  1  0.80499700  0.81691100  0.70143500  1
  Cu  Cu53  1  0.69500300  0.81691100  0.20143500  1
  Cu  Cu54  1  0.76365100  0.95534000  0.91158500  1
  Cu  Cu55  1  0.73634900  0.95534000  0.41158500  1
