# generated using pymatgen
data_Cu3NiC93
_symmetry_space_group_name_H-M   'P 1'
_cell_length_a   15.20516138
_cell_length_b   15.20516138
_cell_length_c   15.20516162
_cell_angle_alpha   111.76197794
_cell_angle_beta   111.76197792
_cell_angle_gamma   111.76197630
_symmetry_Int_Tables_number   1
_chemical_formula_structural   Cu3NiC93
_chemical_formula_sum   'Cu6 Ni2 C186'
_cell_volume   2449.96266434
_cell_formula_units_Z   2
loop_
 _symmetry_equiv_pos_site_id
 _symmetry_equiv_pos_as_xyz
  1  'x, y, z'
loop_
 _atom_site_type_symbol
 _atom_site_label
 _atom_site_symmetry_multiplicity
 _atom_site_fract_x
 _atom_site_fract_y
 _atom_site_fract_z
 _atom_site_occupancy
  Ni  Ni0  1  0.00000000  0.00000000  0.00000000  1
  Ni  Ni1  1  0.50000000  0.50000000  0.50000000  1
  Cu  Cu2  1  0.81761748  0.72816123  0.27192399  1
  Cu  Cu3  1  0.72816123  0.27192399  0.81761748  1
  Cu  Cu4  1  0.27192399  0.81761748  0.72816123  1
  Cu  Cu5  1  0.18238252  0.27183877  0.72807601  1
  Cu  Cu6  1  0.27183877  0.72807601  0.18238252  1
  Cu  Cu7  1  0.72807601  0.18238252  0.27183877  1
  C  C8  1  0.98744207  0.86853540  0.78163004  1
  C  C9  1  0.86853540  0.78163004  0.98744207  1
  C  C10  1  0.78163004  0.98744207  0.86853540  1
  C  C11  1  0.01255793  0.13146460  0.21836996  1
  C  C12  1  0.13146460  0.21836996  0.01255793  1
  C  C13  1  0.21836996  0.01255793  0.13146460  1
  C  C14  1  0.95621553  0.87770348  0.66275616  1
  C  C15  1  0.87770348  0.66275616  0.95621553  1
  C  C16  1  0.66275616  0.95621553  0.87770348  1
  C  C17  1  0.04378447  0.12229652  0.33724384  1
  C  C18  1  0.12229652  0.33724384  0.04378447  1
  C  C19  1  0.33724384  0.04378447  0.12229652  1
  C  C20  1  0.86495507  0.96355841  0.62392544  1
  C  C21  1  0.96355841  0.62392544  0.86495507  1
  C  C22  1  0.62392544  0.86495507  0.96355841  1
  C  C23  1  0.13504493  0.03644159  0.37607456  1
  C  C24  1  0.03644159  0.37607456  0.13504493  1
  C  C25  1  0.37607456  0.13504493  0.03644159  1
  C  C26  1  0.84155377  0.03608685  0.72326985  1
  C  C27  1  0.03608685  0.72326985  0.84155377  1
  C  C28  1  0.72326985  0.84155377  0.03608685  1
  C  C29  1  0.15844623  0.96391315  0.27673015  1
  C  C30  1  0.96391315  0.27673015  0.15844623  1
  C  C31  1  0.27673015  0.15844623  0.96391315  1
  C  C32  1  0.62831092  0.71694159  0.40280278  1
  C  C33  1  0.71694159  0.40280278  0.62831092  1
  C  C34  1  0.40280278  0.62831092  0.71694159  1
  C  C35  1  0.37168908  0.28305841  0.59719722  1
  C  C36  1  0.28305841  0.59719722  0.37168908  1
  C  C37  1  0.59719722  0.37168908  0.28305841  1
  C  C38  1  0.61880925  0.83272245  0.46235598  1
  C  C39  1  0.83272245  0.46235598  0.61880925  1
  C  C40  1  0.46235598  0.61880925  0.83272245  1
  C  C41  1  0.38119075  0.16727755  0.53764402  1
  C  C42  1  0.16727755  0.53764402  0.38119075  1
  C  C43  1  0.53764402  0.38119075  0.16727755  1
  C  C44  1  0.54146783  0.83155156  0.57539346  1
  C  C45  1  0.83155156  0.57539346  0.54146783  1
  C  C46  1  0.57539346  0.54146783  0.83155156  1
  C  C47  1  0.45853217  0.16844844  0.42460654  1
  C  C48  1  0.16844844  0.42460654  0.45853217  1
  C  C49  1  0.42460654  0.45853217  0.16844844  1
  C  C50  1  0.53739260  0.74536279  0.62616783  1
  C  C51  1  0.74536279  0.62616783  0.53739260  1
  C  C52  1  0.62616783  0.53739260  0.74536279  1
  C  C53  1  0.46260740  0.25463721  0.37383217  1
  C  C54  1  0.25463721  0.37383217  0.46260740  1
  C  C55  1  0.37383217  0.46260740  0.25463721  1
  C  C56  1  0.91520753  0.95704704  0.76527831  1
  C  C57  1  0.95704704  0.76527831  0.91520753  1
  C  C58  1  0.76527831  0.91520753  0.95704704  1
  C  C59  1  0.08479247  0.04295296  0.23472169  1
  C  C60  1  0.04295296  0.23472169  0.08479247  1
  C  C61  1  0.23472169  0.08479247  0.04295296  1
  C  C62  1  0.58787774  0.72344850  0.51637614  1
  C  C63  1  0.72344850  0.51637614  0.58787774  1
  C  C64  1  0.51637614  0.58787774  0.72344850  1
  C  C65  1  0.41212226  0.27655150  0.48362386  1
  C  C66  1  0.27655150  0.48362386  0.41212226  1
  C  C67  1  0.48362386  0.41212226  0.27655150  1
  C  C68  1  0.84130475  0.76222092  0.42274405  1
  C  C69  1  0.76222092  0.42274405  0.84130475  1
  C  C70  1  0.42274405  0.84130475  0.76222092  1
  C  C71  1  0.15869525  0.23777908  0.57725595  1
  C  C72  1  0.23777908  0.57725595  0.15869525  1
  C  C73  1  0.57725595  0.15869525  0.23777908  1
  C  C74  1  0.64261369  0.65369726  0.20063169  1
  C  C75  1  0.65369726  0.20063169  0.64261369  1
  C  C76  1  0.20063169  0.64261369  0.65369726  1
  C  C77  1  0.35738631  0.34630274  0.79936831  1
  C  C78  1  0.34630274  0.79936831  0.35738631  1
  C  C79  1  0.79936831  0.35738631  0.34630274  1
  C  C80  1  0.69163251  0.11673876  0.78488312  1
  C  C81  1  0.11673876  0.78488312  0.69163251  1
  C  C82  1  0.78488312  0.69163251  0.11673876  1
  C  C83  1  0.30836749  0.88326124  0.21511688  1
  C  C84  1  0.88326124  0.21511688  0.30836749  1
  C  C85  1  0.21511688  0.30836749  0.88326124  1
  C  C86  1  0.00714837  0.19969778  0.65590092  1
  C  C87  1  0.19969778  0.65590092  0.00714837  1
  C  C88  1  0.65590092  0.00714837  0.19969778  1
  C  C89  1  0.99285163  0.80030222  0.34409908  1
  C  C90  1  0.80030222  0.34409908  0.99285163  1
  C  C91  1  0.34409908  0.99285163  0.80030222  1
  C  C92  1  0.78810770  0.59201232  0.22598543  1
  C  C93  1  0.59201232  0.22598543  0.78810770  1
  C  C94  1  0.22598543  0.78810770  0.59201232  1
  C  C95  1  0.21189230  0.40798768  0.77401457  1
  C  C96  1  0.40798768  0.77401457  0.21189230  1
  C  C97  1  0.77401457  0.21189230  0.40798768  1
  C  C98  1  0.15709120  0.13939268  0.69138739  1
  C  C99  1  0.13939268  0.69138739  0.15709120  1
  C  C100  1  0.69138739  0.15709120  0.13939268  1
  C  C101  1  0.84290880  0.86060732  0.30861261  1
  C  C102  1  0.86060732  0.30861261  0.84290880  1
  C  C103  1  0.30861261  0.84290880  0.86060732  1
  C  C104  1  0.95710204  0.89690852  0.73496882  1
  C  C105  1  0.89690852  0.73496882  0.95710204  1
  C  C106  1  0.73496882  0.95710204  0.89690852  1
  C  C107  1  0.04289796  0.10309148  0.26503118  1
  C  C108  1  0.10309148  0.26503118  0.04289796  1
  C  C109  1  0.26503118  0.04289796  0.10309148  1
  C  C110  1  0.87382699  0.99107351  0.70040864  1
  C  C111  1  0.99107351  0.70040864  0.87382699  1
  C  C112  1  0.70040864  0.87382699  0.99107351  1
  C  C113  1  0.12617301  0.00892649  0.29959136  1
  C  C114  1  0.00892649  0.29959136  0.12617301  1
  C  C115  1  0.29959136  0.12617301  0.00892649  1
  C  C116  1  0.61240169  0.76088826  0.45595410  1
  C  C117  1  0.76088826  0.45595410  0.61240169  1
  C  C118  1  0.45595410  0.61240169  0.76088826  1
  C  C119  1  0.38759831  0.23911174  0.54404590  1
  C  C120  1  0.23911174  0.54404590  0.38759831  1
  C  C121  1  0.54404590  0.38759831  0.23911174  1
  C  C122  1  0.55627416  0.77290403  0.57984744  1
  C  C123  1  0.77290403  0.57984744  0.55627416  1
  C  C124  1  0.57984744  0.55627416  0.77290403  1
  C  C125  1  0.44372584  0.22709597  0.42015256  1
  C  C126  1  0.22709597  0.42015256  0.44372584  1
  C  C127  1  0.42015256  0.44372584  0.22709597  1
  C  C128  1  0.91171585  0.98443074  0.85409318  1
  C  C129  1  0.98443074  0.85409318  0.91171585  1
  C  C130  1  0.85409318  0.91171585  0.98443074  1
  C  C131  1  0.08828415  0.01556926  0.14590682  1
  C  C132  1  0.01556926  0.14590682  0.08828415  1
  C  C133  1  0.14590682  0.08828415  0.01556926  1
  C  C134  1  0.59845246  0.64234246  0.51316993  1
  C  C135  1  0.64234246  0.51316993  0.59845246  1
  C  C136  1  0.51316993  0.59845246  0.64234246  1
  C  C137  1  0.40154754  0.35765754  0.48683007  1
  C  C138  1  0.35765754  0.48683007  0.40154754  1
  C  C139  1  0.48683007  0.40154754  0.35765754  1
  C  C140  1  0.68962375  0.98910352  0.48227489  1
  C  C141  1  0.98910352  0.48227489  0.68962375  1
  C  C142  1  0.48227489  0.68962375  0.98910352  1
  C  C143  1  0.31037625  0.01089648  0.51772511  1
  C  C144  1  0.01089648  0.51772511  0.31037625  1
  C  C145  1  0.51772511  0.31037625  0.01089648  1
  C  C146  1  0.78935351  0.67776135  0.42339161  1
  C  C147  1  0.67776135  0.42339161  0.78935351  1
  C  C148  1  0.42339161  0.78935351  0.67776135  1
  C  C149  1  0.21064649  0.32223865  0.57660839  1
  C  C150  1  0.32223865  0.57660839  0.21064649  1
  C  C151  1  0.57660839  0.21064649  0.32223865  1
  C  C152  1  0.90205319  0.86579338  0.50799433  1
  C  C153  1  0.86579338  0.50799433  0.90205319  1
  C  C154  1  0.50799433  0.90205319  0.86579338  1
  C  C155  1  0.09794681  0.13420662  0.49200567  1
  C  C156  1  0.13420662  0.49200567  0.09794681  1
  C  C157  1  0.49200567  0.09794681  0.13420662  1
  C  C158  1  0.45443730  0.86576884  0.42685531  1
  C  C159  1  0.86576884  0.42685531  0.45443730  1
  C  C160  1  0.42685531  0.45443730  0.86576884  1
  C  C161  1  0.54556270  0.13423116  0.57314469  1
  C  C162  1  0.13423116  0.57314469  0.54556270  1
  C  C163  1  0.57314469  0.54556270  0.13423116  1
  C  C164  1  0.61679273  0.72109722  0.23294737  1
  C  C165  1  0.72109722  0.23294737  0.61679273  1
  C  C166  1  0.23294737  0.61679273  0.72109722  1
  C  C167  1  0.38320727  0.27890278  0.76705263  1
  C  C168  1  0.27890278  0.76705263  0.38320727  1
  C  C169  1  0.76705263  0.38320727  0.27890278  1
  C  C170  1  0.59834731  0.04571149  0.76171065  1
  C  C171  1  0.04571149  0.76171065  0.59834731  1
  C  C172  1  0.76171065  0.59834731  0.04571149  1
  C  C173  1  0.40165269  0.95428851  0.23828935  1
  C  C174  1  0.95428851  0.23828935  0.40165269  1
  C  C175  1  0.23828935  0.40165269  0.95428851  1
  C  C176  1  0.76549219  0.09753225  0.78880417  1
  C  C177  1  0.09753225  0.78880417  0.76549219  1
  C  C178  1  0.78880417  0.76549219  0.09753225  1
  C  C179  1  0.23450781  0.90246775  0.21119583  1
  C  C180  1  0.90246775  0.21119583  0.23450781  1
  C  C181  1  0.21119583  0.23450781  0.90246775  1
  C  C182  1  0.98645018  0.26421214  0.70621534  1
  C  C183  1  0.26421214  0.70621534  0.98645018  1
  C  C184  1  0.70621534  0.98645018  0.26421214  1
  C  C185  1  0.01354982  0.73578786  0.29378466  1
  C  C186  1  0.73578786  0.29378466  0.01354982  1
  C  C187  1  0.29378466  0.01354982  0.73578786  1
  C  C188  1  0.93584243  0.09633962  0.57009414  1
  C  C189  1  0.09633962  0.57009414  0.93584243  1
  C  C190  1  0.57009414  0.93584243  0.09633962  1
  C  C191  1  0.06415757  0.90366038  0.42990586  1
  C  C192  1  0.90366038  0.42990586  0.06415757  1
  C  C193  1  0.42990586  0.06415757  0.90366038  1
