# generated using pymatgen
data_CuNiC6
_symmetry_space_group_name_H-M   'P 1'
_cell_length_a   5.95578073
_cell_length_b   5.95578073
_cell_length_c   9.21617433
_cell_angle_alpha   89.76518897
_cell_angle_beta   89.76518897
_cell_angle_gamma   60.12780244
_symmetry_Int_Tables_number   1
_chemical_formula_structural   CuNiC6
_chemical_formula_sum   'Cu3 Ni3 C18'
_cell_volume   283.47299899
_cell_formula_units_Z   3
loop_
 _symmetry_equiv_pos_site_id
 _symmetry_equiv_pos_as_xyz
  1  'x, y, z'
loop_
 _atom_site_type_symbol
 _atom_site_label
 _atom_site_symmetry_multiplicity
 _atom_site_fract_x
 _atom_site_fract_y
 _atom_site_fract_z
 _atom_site_occupancy
  Ni  Ni0  1  0.83121500  0.83121500  0.21075000  1
  Ni  Ni1  1  0.66507200  0.16801100  0.70966800  1
  Ni  Ni2  1  0.16801100  0.66507200  0.70966800  1
  Cu  Cu3  1  0.83089400  0.33757800  0.21056900  1
  Cu  Cu4  1  0.33757800  0.83089400  0.21056900  1
  Cu  Cu5  1  0.16997200  0.16997200  0.71141000  1
  C  C6  1  0.66482200  0.66482200  0.48670900  1
  C  C7  1  0.33236000  0.33236000  0.98869300  1
  C  C8  1  0.82895200  0.34369300  0.59632400  1
  C  C9  1  0.52120100  0.52120100  0.34554100  1
  C  C10  1  0.67184600  0.67184600  0.10930100  1
  C  C11  1  0.99557500  0.99557500  0.30340700  1
  C  C12  1  0.99562400  0.99562400  0.80185000  1
  C  C13  1  0.34369300  0.82895200  0.59632400  1
  C  C14  1  0.95804100  0.52462200  0.34268000  1
  C  C15  1  0.52462200  0.95804100  0.34268000  1
  C  C16  1  0.17117100  0.17117100  0.09570700  1
  C  C17  1  0.82372200  0.82372200  0.59774500  1
  C  C18  1  0.47821900  0.04290300  0.84487600  1
  C  C19  1  0.04290300  0.47821900  0.84487600  1
  C  C20  1  0.33960900  0.33960900  0.61167100  1
  C  C21  1  0.65511300  0.17005600  0.09764900  1
  C  C22  1  0.48016600  0.48016600  0.84941400  1
  C  C23  1  0.17005600  0.65511300  0.09764900  1
