# generated using pymatgen
data_Cu4Ni3C7
_symmetry_space_group_name_H-M   'P 1'
_cell_length_a   12.47153300
_cell_length_b   6.97589300
_cell_length_c   8.63720643
_cell_angle_alpha   52.69658843
_cell_angle_beta   90.00000000
_cell_angle_gamma   90.00000000
_symmetry_Int_Tables_number   1
_chemical_formula_structural   Cu4Ni3C7
_chemical_formula_sum   'Cu16 Ni12 C28'
_cell_volume   597.72160694
_cell_formula_units_Z   4
loop_
 _symmetry_equiv_pos_site_id
 _symmetry_equiv_pos_as_xyz
  1  'x, y, z'
loop_
 _atom_site_type_symbol
 _atom_site_label
 _atom_site_symmetry_multiplicity
 _atom_site_fract_x
 _atom_site_fract_y
 _atom_site_fract_z
 _atom_site_occupancy
  C  C0  1  0.55293200  0.35164600  0.89813300  1
  C  C1  1  0.05293200  0.64835400  0.60186700  1
  C  C2  1  0.94706800  0.35164600  0.39813300  1
  C  C3  1  0.44706800  0.64835400  0.10186700  1
  C  C4  1  0.57875900  0.82136200  0.38392400  1
  C  C5  1  0.07875900  0.17863800  0.11607600  1
  C  C6  1  0.92124100  0.82136200  0.88392400  1
  C  C7  1  0.42124100  0.17863800  0.61607600  1
  C  C8  1  0.92475500  0.17970600  0.85637800  1
  C  C9  1  0.69213400  0.54923300  0.38570000  1
  C  C10  1  0.37965600  0.06331400  0.01201900  1
  C  C11  1  0.87965600  0.93668600  0.48798100  1
  C  C12  1  0.42475500  0.82029400  0.64362200  1
  C  C13  1  0.80786600  0.54923300  0.88570000  1
  C  C14  1  0.19213400  0.45076700  0.11430000  1
  C  C15  1  0.57524500  0.17970600  0.35637800  1
  C  C16  1  0.12034400  0.06331400  0.51201900  1
  C  C17  1  0.30786600  0.45076700  0.61430000  1
  C  C18  1  0.62034400  0.93668600  0.98798100  1
  C  C19  1  0.07524500  0.82029400  0.14362200  1
  C  C20  1  0.23144200  0.90787700  0.09870600  1
  C  C21  1  0.79622300  0.72588800  0.43955300  1
  C  C22  1  0.29622300  0.27411200  0.06044700  1
  C  C23  1  0.26855800  0.90787700  0.59870600  1
  C  C24  1  0.73144200  0.09212300  0.40129400  1
  C  C25  1  0.70377700  0.72588800  0.93955300  1
  C  C26  1  0.20377700  0.27411200  0.56044700  1
  C  C27  1  0.76855800  0.09212300  0.90129400  1
  Ni  Ni28  1  0.69685300  0.68664400  0.39802100  1
  Ni  Ni29  1  0.13007200  0.93540300  0.13929600  1
  Ni  Ni30  1  0.30571900  0.08268200  0.05283000  1
  Ni  Ni31  1  0.80571900  0.91731800  0.44717000  1
  Ni  Ni32  1  0.63007200  0.06459700  0.36070400  1
  Ni  Ni33  1  0.80314700  0.68664400  0.89802100  1
  Ni  Ni34  1  0.19685300  0.31335600  0.10197900  1
  Ni  Ni35  1  0.36992800  0.93540300  0.63929600  1
  Ni  Ni36  1  0.19428100  0.08268200  0.55283000  1
  Ni  Ni37  1  0.69428100  0.91731800  0.94717000  1
  Ni  Ni38  1  0.86992800  0.06459700  0.86070400  1
  Ni  Ni39  1  0.30314700  0.31335600  0.60197900  1
  Cu  Cu40  1  0.73953100  0.26505900  0.89958300  1
  Cu  Cu41  1  0.87740400  0.60400100  0.46801200  1
  Cu  Cu42  1  0.01675600  0.32882500  0.92858200  1
  Cu  Cu43  1  0.52508700  0.90474300  0.19611500  1
  Cu  Cu44  1  0.51675600  0.67117500  0.57141800  1
  Cu  Cu45  1  0.23953100  0.73494100  0.60041700  1
  Cu  Cu46  1  0.62259600  0.60400100  0.96801200  1
  Cu  Cu47  1  0.02508700  0.09525700  0.30388500  1
  Cu  Cu48  1  0.97491300  0.90474300  0.69611500  1
  Cu  Cu49  1  0.37740400  0.39599900  0.03198800  1
  Cu  Cu50  1  0.76046900  0.26505900  0.39958300  1
  Cu  Cu51  1  0.48324400  0.32882500  0.42858200  1
  Cu  Cu52  1  0.47491300  0.09525700  0.80388500  1
  Cu  Cu53  1  0.98324400  0.67117500  0.07141800  1
  Cu  Cu54  1  0.12259600  0.39599900  0.53198800  1
  Cu  Cu55  1  0.26046900  0.73494100  0.10041700  1
