# generated using pymatgen
data_CuNiC
_symmetry_space_group_name_H-M   'P 1'
_cell_length_a   5.08605000
_cell_length_b   6.71041000
_cell_length_c   8.46496400
_cell_angle_alpha   90.00000000
_cell_angle_beta   90.00000000
_cell_angle_gamma   90.00000000
_symmetry_Int_Tables_number   1
_chemical_formula_structural   CuNiC
_chemical_formula_sum   'Cu8 Ni8 C8'
_cell_volume   288.90482615
_cell_formula_units_Z   8
loop_
 _symmetry_equiv_pos_site_id
 _symmetry_equiv_pos_as_xyz
  1  'x, y, z'
loop_
 _atom_site_type_symbol
 _atom_site_label
 _atom_site_symmetry_multiplicity
 _atom_site_fract_x
 _atom_site_fract_y
 _atom_site_fract_z
 _atom_site_occupancy
  C  C0  1  0.02873300  0.24699100  0.72686900  1
  C  C1  1  0.02873300  0.25300900  0.22686900  1
  C  C2  1  0.97126700  0.74699100  0.72686900  1
  C  C3  1  0.97126700  0.75300900  0.22686900  1
  C  C4  1  0.54588400  0.98966500  0.02165800  1
  C  C5  1  0.54588400  0.51033500  0.52165800  1
  C  C6  1  0.45411600  0.48966500  0.02165800  1
  C  C7  1  0.45411600  0.01033500  0.52165800  1
  Ni  Ni8  1  0.31577100  0.03651500  0.69628400  1
  Ni  Ni9  1  0.60829000  0.24613000  0.96856300  1
  Ni  Ni10  1  0.60829000  0.25387000  0.46856300  1
  Ni  Ni11  1  0.31577100  0.46348500  0.19628400  1
  Ni  Ni12  1  0.68422900  0.53651500  0.69628400  1
  Ni  Ni13  1  0.39171000  0.74613000  0.96856300  1
  Ni  Ni14  1  0.39171000  0.75387000  0.46856300  1
  Ni  Ni15  1  0.68422900  0.96348500  0.19628400  1
  Cu  Cu16  1  0.17884200  0.08528800  0.38844400  1
  Cu  Cu17  1  0.20315800  0.06340000  0.08002200  1
  Cu  Cu18  1  0.20315800  0.43660000  0.58002200  1
  Cu  Cu19  1  0.17884200  0.41471200  0.88844400  1
  Cu  Cu20  1  0.82115800  0.58528800  0.38844400  1
  Cu  Cu21  1  0.79684200  0.56340000  0.08002200  1
  Cu  Cu22  1  0.79684200  0.93660000  0.58002200  1
  Cu  Cu23  1  0.82115800  0.91471200  0.88844400  1
