# generated using pymatgen
data_Cu(NiC)2
_symmetry_space_group_name_H-M   'P 1'
_cell_length_a   8.72074200
_cell_length_b   8.72551587
_cell_length_c   8.73152233
_cell_angle_alpha   109.39531526
_cell_angle_beta   109.41691779
_cell_angle_gamma   109.50478539
_symmetry_Int_Tables_number   1
_chemical_formula_structural   Cu(NiC)2
_chemical_formula_sum   'Cu8 Ni16 C16'
_cell_volume   512.06984787
_cell_formula_units_Z   8
loop_
 _symmetry_equiv_pos_site_id
 _symmetry_equiv_pos_as_xyz
  1  'x, y, z'
loop_
 _atom_site_type_symbol
 _atom_site_label
 _atom_site_symmetry_multiplicity
 _atom_site_fract_x
 _atom_site_fract_y
 _atom_site_fract_z
 _atom_site_occupancy
  C  C0  1  0.51241000  0.49981700  0.50101700  1
  C  C1  1  0.20625000  0.74945400  0.46520300  1
  C  C2  1  0.96366400  0.21528300  0.24947200  1
  C  C3  1  0.47635200  0.71957100  0.25112700  1
  C  C4  1  0.29451300  0.24609500  0.03490700  1
  C  C5  1  0.74834400  0.96534900  0.71495700  1
  C  C6  1  0.25314500  0.03528000  0.28576300  1
  C  C7  1  0.24082900  0.53091800  0.78542900  1
  C  C8  1  0.98281600  0.49304800  0.99515400  1
  C  C9  1  0.75255300  0.47158300  0.21327500  1
  C  C10  1  0.00078600  0.99908600  0.48895400  1
  C  C11  1  0.50168400  0.99993100  0.00040900  1
  C  C12  1  0.71853300  0.75906400  0.96974000  1
  C  C13  1  0.53521400  0.28188400  0.74782400  1
  C  C14  1  0.02633500  0.78027300  0.75165800  1
  C  C15  1  0.78789400  0.24974600  0.54228100  1
  Ni  Ni16  1  0.76862400  0.72837600  0.73483400  1
  Ni  Ni17  1  0.54005500  0.51156900  0.27212900  1
  Ni  Ni18  1  0.95621200  0.72843400  0.47342500  1
  Ni  Ni19  1  0.50466400  0.76684400  0.04005700  1
  Ni  Ni20  1  0.73715400  0.01562800  0.96682900  1
  Ni  Ni21  1  0.01333100  0.46597900  0.23836200  1
  Ni  Ni22  1  0.04801500  0.27439400  0.53415400  1
  Ni  Ni23  1  0.76160100  0.22904000  0.77332800  1
  Ni  Ni24  1  0.72688900  0.96366100  0.45699700  1
  Ni  Ni25  1  0.99655000  0.53894200  0.76788900  1
  Ni  Ni26  1  0.96920600  0.95573500  0.22636300  1
  Ni  Ni27  1  0.25894600  0.98717700  0.03255200  1
  Ni  Ni28  1  0.48774600  0.22570600  0.95464900  1
  Ni  Ni29  1  0.77165900  0.54721800  0.01081700  1
  Ni  Ni30  1  0.27371100  0.03020400  0.54290800  1
  Ni  Ni31  1  0.53642200  0.26616800  0.48524700  1
  Cu  Cu32  1  0.22804700  0.27318900  0.26484700  1
  Cu  Cu33  1  0.46141900  0.73899900  0.51504800  1
  Cu  Cu34  1  0.27973200  0.76055500  0.72519700  1
  Cu  Cu35  1  0.45107200  0.48827800  0.72200000  1
  Cu  Cu36  1  0.24543800  0.77186400  0.23051600  1
  Cu  Cu37  1  0.72509500  0.23370900  0.27087000  1
  Cu  Cu38  1  0.03455100  0.05497200  0.77985200  1
  Cu  Cu39  1  0.22254400  0.44697700  0.98396200  1
