# generated using pymatgen
data_Cu8Ni2C3
_symmetry_space_group_name_H-M   'P 1'
_cell_length_a   4.79107700
_cell_length_b   10.79553600
_cell_length_c   13.36699800
_cell_angle_alpha   90.00000000
_cell_angle_beta   90.00000000
_cell_angle_gamma   90.00000000
_symmetry_Int_Tables_number   1
_chemical_formula_structural   Cu8Ni2C3
_chemical_formula_sum   'Cu32 Ni8 C12'
_cell_volume   691.37113521
_cell_formula_units_Z   4
loop_
 _symmetry_equiv_pos_site_id
 _symmetry_equiv_pos_as_xyz
  1  'x, y, z'
loop_
 _atom_site_type_symbol
 _atom_site_label
 _atom_site_symmetry_multiplicity
 _atom_site_fract_x
 _atom_site_fract_y
 _atom_site_fract_z
 _atom_site_occupancy
  C  C0  1  0.50749900  0.56260900  0.33570500  1
  C  C1  1  0.99250100  0.43739100  0.83570500  1
  C  C2  1  0.00749900  0.93739100  0.66429500  1
  C  C3  1  0.49250100  0.06260900  0.16429500  1
  C  C4  1  0.21333900  0.76035500  0.90959600  1
  C  C5  1  0.28666100  0.23964500  0.40959600  1
  C  C6  1  0.71333900  0.73964500  0.09040400  1
  C  C7  1  0.78666100  0.26035500  0.59040400  1
  C  C8  1  0.44339600  0.55368400  0.63118100  1
  C  C9  1  0.05660400  0.44631600  0.13118100  1
  C  C10  1  0.94339600  0.94631600  0.36881900  1
  C  C11  1  0.55660400  0.05368400  0.86881900  1
  Ni  Ni12  1  0.56224900  0.71545600  0.81484400  1
  Ni  Ni13  1  0.93775100  0.28454400  0.31484400  1
  Ni  Ni14  1  0.06224900  0.78454400  0.18515600  1
  Ni  Ni15  1  0.43775100  0.21545600  0.68515600  1
  Ni  Ni16  1  0.03632700  0.57879500  0.56340000  1
  Ni  Ni17  1  0.46367300  0.42120500  0.06340000  1
  Ni  Ni18  1  0.53632700  0.92120500  0.43660000  1
  Ni  Ni19  1  0.96367300  0.07879500  0.93660000  1
  Cu  Cu20  1  0.51625200  0.82447300  0.75101100  1
  Cu  Cu21  1  0.98374800  0.17552700  0.25101100  1
  Cu  Cu22  1  0.01625200  0.67552700  0.24898900  1
  Cu  Cu23  1  0.48374800  0.32447300  0.74898900  1
  Cu  Cu24  1  0.85493600  0.69832400  0.84347900  1
  Cu  Cu25  1  0.64506400  0.30167600  0.34347900  1
  Cu  Cu26  1  0.35493600  0.80167600  0.15652100  1
  Cu  Cu27  1  0.14506400  0.19832400  0.65652100  1
  Cu  Cu28  1  0.44065300  0.60108500  0.77281800  1
  Cu  Cu29  1  0.05934700  0.39891500  0.27281800  1
  Cu  Cu30  1  0.94065300  0.89891500  0.22718200  1
  Cu  Cu31  1  0.55934700  0.10108500  0.72718200  1
  Cu  Cu32  1  0.41386300  0.74125300  0.91919900  1
  Cu  Cu33  1  0.08613700  0.25874700  0.41919900  1
  Cu  Cu34  1  0.91386300  0.75874700  0.08080100  1
  Cu  Cu35  1  0.58613700  0.24125300  0.58080100  1
  Cu  Cu36  1  0.97710700  0.55860800  0.45682700  1
  Cu  Cu37  1  0.52289300  0.44139200  0.95682700  1
  Cu  Cu38  1  0.47710700  0.94139200  0.54317300  1
  Cu  Cu39  1  0.02289300  0.05860800  0.04317300  1
  Cu  Cu40  1  0.97430600  0.70427100  0.59736700  1
  Cu  Cu41  1  0.52569400  0.29572900  0.09736700  1
  Cu  Cu42  1  0.47430600  0.79572900  0.40263300  1
  Cu  Cu43  1  0.02569400  0.20427100  0.90263300  1
  Cu  Cu44  1  0.57713900  0.51631200  0.12994800  1
  Cu  Cu45  1  0.92286100  0.48368800  0.62994800  1
  Cu  Cu46  1  0.07713900  0.98368800  0.87005200  1
  Cu  Cu47  1  0.42286100  0.01631200  0.37005200  1
  Cu  Cu48  1  0.36920300  0.55982200  0.56227500  1
  Cu  Cu49  1  0.13079700  0.44017800  0.06227500  1
  Cu  Cu50  1  0.86920300  0.94017800  0.43772500  1
  Cu  Cu51  1  0.63079700  0.05982200  0.93772500  1
