# generated using pymatgen
data_CuNi2C33
_symmetry_space_group_name_H-M   'P 1'
_cell_length_a   8.58394834
_cell_length_b   8.58394834
_cell_length_c   8.58394772
_cell_angle_alpha   60.11617683
_cell_angle_beta   60.11617683
_cell_angle_gamma   60.11618110
_symmetry_Int_Tables_number   1
_chemical_formula_structural   CuNi2C33
_chemical_formula_sum   'Cu1 Ni2 C33'
_cell_volume   448.42298838
_cell_formula_units_Z   1
loop_
 _symmetry_equiv_pos_site_id
 _symmetry_equiv_pos_as_xyz
  1  'x, y, z'
loop_
 _atom_site_type_symbol
 _atom_site_label
 _atom_site_symmetry_multiplicity
 _atom_site_fract_x
 _atom_site_fract_y
 _atom_site_fract_z
 _atom_site_occupancy
  Ni  Ni0  1  0.99733200  0.99733200  0.99733200  1
  Ni  Ni1  1  0.49964100  0.49964100  0.49964100  1
  C  C2  1  0.35548300  0.35548300  0.35548300  1
  C  C3  1  0.14363400  0.14363400  0.14363400  1
  C  C4  1  0.64387400  0.64387400  0.64387400  1
  Cu  Cu5  1  0.85406600  0.85406600  0.85406600  1
  C  C6  1  0.75115600  0.04283800  0.45842200  1
  C  C7  1  0.04283800  0.45842200  0.75115600  1
  C  C8  1  0.45842200  0.75115600  0.04283800  1
  C  C9  1  0.54191800  0.24814600  0.95961500  1
  C  C10  1  0.95961500  0.54191800  0.24814500  1
  C  C11  1  0.24814500  0.95961500  0.54191800  1
  C  C12  1  0.88028300  0.49098200  0.69779600  1
  C  C13  1  0.49098200  0.69779600  0.88028300  1
  C  C14  1  0.69779600  0.88028300  0.49098200  1
  C  C15  1  0.91506200  0.06409700  0.26192000  1
  C  C16  1  0.80448600  0.01433400  0.61665300  1
  C  C17  1  0.58389400  0.23728800  0.43602000  1
  C  C18  1  0.06409700  0.26192000  0.91506200  1
  C  C19  1  0.23728800  0.43602000  0.58389400  1
  C  C20  1  0.37999000  0.18926300  0.99883200  1
  C  C21  1  0.43602000  0.58389400  0.23728800  1
  C  C22  1  0.73273700  0.08542000  0.94822400  1
  C  C23  1  0.99883200  0.37999000  0.18926300  1
  C  C24  1  0.01433400  0.61665300  0.80448600  1
  C  C25  1  0.26192000  0.91506200  0.06409700  1
  C  C26  1  0.55382200  0.41527800  0.76615900  1
  C  C27  1  0.61665300  0.80448600  0.01433400  1
  C  C28  1  0.76615900  0.55382200  0.41527800  1
  C  C29  1  0.94822400  0.73273700  0.08542000  1
  C  C30  1  0.41527800  0.76615900  0.55382200  1
  C  C31  1  0.18926300  0.99883200  0.37999000  1
  C  C32  1  0.08542000  0.94822400  0.73273700  1
  C  C33  1  0.31290100  0.11904200  0.49937800  1
  C  C34  1  0.49937800  0.31290100  0.11904200  1
  C  C35  1  0.11904200  0.49937800  0.31290100  1
