# generated using pymatgen
data_Cu3NiC36
_symmetry_space_group_name_H-M   'P 1'
_cell_length_a   8.35162600
_cell_length_b   8.53981405
_cell_length_c   8.75384980
_cell_angle_alpha   61.23394391
_cell_angle_beta   61.95957387
_cell_angle_gamma   62.08375718
_symmetry_Int_Tables_number   1
_chemical_formula_structural   Cu3NiC36
_chemical_formula_sum   'Cu3 Ni1 C36'
_cell_volume   458.81730516
_cell_formula_units_Z   1
loop_
 _symmetry_equiv_pos_site_id
 _symmetry_equiv_pos_as_xyz
  1  'x, y, z'
loop_
 _atom_site_type_symbol
 _atom_site_label
 _atom_site_symmetry_multiplicity
 _atom_site_fract_x
 _atom_site_fract_y
 _atom_site_fract_z
 _atom_site_occupancy
  C  C0  1  0.25525600  0.64086600  0.84638400  1
  C  C1  1  0.71839200  0.35675700  0.15735600  1
  C  C2  1  0.35110500  0.14672100  0.70339400  1
  C  C3  1  0.14481800  0.70506800  0.35660300  1
  Ni  Ni4  1  0.14879000  0.14584500  0.15322300  1
  C  C5  1  0.98727200  0.99345200  0.00864000  1
  C  C6  1  0.50753800  0.49632000  0.49908100  1
  Cu  Cu7  1  0.85724700  0.85777200  0.85266900  1
  Cu  Cu8  1  0.64038600  0.64395600  0.64538900  1
  Cu  Cu9  1  0.35758100  0.35202800  0.34827600  1
  C  C10  1  0.25325700  0.94955300  0.54854000  1
  C  C11  1  0.94537700  0.54857300  0.25675700  1
  C  C12  1  0.56294300  0.24790200  0.96097200  1
  C  C13  1  0.75204200  0.04440300  0.46267600  1
  C  C14  1  0.44179200  0.75403900  0.03111300  1
  C  C15  1  0.05397900  0.46347500  0.75411100  1
  C  C16  1  0.88441700  0.50614000  0.70531500  1
  C  C17  1  0.69723600  0.88732000  0.48614500  1
  C  C18  1  0.93727900  0.73494300  0.09165000  1
  C  C19  1  0.43894900  0.70613600  0.88559300  1
  C  C20  1  0.00401300  0.38301700  0.18808200  1
  C  C21  1  0.75187500  0.54881300  0.41219600  1
  C  C22  1  0.75813100  0.09287500  0.92823000  1
  C  C23  1  0.53963000  0.41255200  0.78243000  1
  C  C24  1  0.82569500  0.00939600  0.60685800  1
  C  C25  1  0.40637500  0.75173700  0.55758900  1
  C  C26  1  0.90210100  0.08901400  0.25960800  1
  C  C27  1  0.59939600  0.83140400  0.96747000  1
  C  C28  1  0.39072300  0.17419900  0.02925200  1
  C  C29  1  0.10182700  0.92253400  0.73971400  1
  C  C30  1  0.58568800  0.24135800  0.44728700  1
  C  C31  1  0.18645100  0.00339200  0.38366200  1
  C  C32  1  0.44142000  0.59144900  0.21989000  1
  C  C33  1  0.23274100  0.90795800  0.08356700  1
  C  C34  1  0.24665500  0.44852500  0.58428000  1
  C  C35  1  0.04013300  0.60427800  0.82193500  1
  C  C36  1  0.54292000  0.30540100  0.11088700  1
  C  C37  1  0.08995200  0.25736800  0.90375400  1
  C  C38  1  0.31972200  0.10442600  0.51618100  1
  C  C39  1  0.09890000  0.51603800  0.32623700  1
