# generated using pymatgen
data_Cu5NiC3
_symmetry_space_group_name_H-M   'P 1'
_cell_length_a   4.57867249
_cell_length_b   4.57867249
_cell_length_c   18.36822503
_cell_angle_alpha   89.24174627
_cell_angle_beta   89.24174627
_cell_angle_gamma   89.94535186
_symmetry_Int_Tables_number   1
_chemical_formula_structural   Cu5NiC3
_chemical_formula_sum   'Cu20 Ni4 C12'
_cell_volume   385.00835599
_cell_formula_units_Z   4
loop_
 _symmetry_equiv_pos_site_id
 _symmetry_equiv_pos_as_xyz
  1  'x, y, z'
loop_
 _atom_site_type_symbol
 _atom_site_label
 _atom_site_symmetry_multiplicity
 _atom_site_fract_x
 _atom_site_fract_y
 _atom_site_fract_z
 _atom_site_occupancy
  C  C0  1  0.99432400  0.98605400  0.99989700  1
  C  C1  1  0.98605400  0.99432400  0.49989700  1
  C  C2  1  0.49595800  0.51363700  0.75009100  1
  C  C3  1  0.51363700  0.49595800  0.25009100  1
  C  C4  1  0.00766300  0.00970300  0.66439800  1
  C  C5  1  0.97703900  0.02904300  0.83283400  1
  C  C6  1  0.02904300  0.97703900  0.33283400  1
  C  C7  1  0.00970300  0.00766300  0.16439800  1
  C  C8  1  0.49074500  0.50739000  0.41414100  1
  C  C9  1  0.50739000  0.49074500  0.91414100  1
  C  C10  1  0.47361300  0.47782200  0.58266200  1
  C  C11  1  0.47782200  0.47361300  0.08266200  1
  Ni  Ni12  1  0.20338300  0.20623600  0.59114200  1
  Ni  Ni13  1  0.20623600  0.20338300  0.09114200  1
  Ni  Ni14  1  0.29952600  0.70595100  0.34136300  1
  Ni  Ni15  1  0.70595100  0.29952600  0.84136300  1
  Cu  Cu16  1  0.20944100  0.19961200  0.91603500  1
  Cu  Cu17  1  0.19811500  0.20093900  0.74907000  1
  Cu  Cu18  1  0.19961200  0.20944100  0.41603500  1
  Cu  Cu19  1  0.20093900  0.19811500  0.24907000  1
  Cu  Cu20  1  0.31346300  0.68362200  0.99510000  1
  Cu  Cu21  1  0.29166800  0.71404000  0.83545400  1
  Cu  Cu22  1  0.29968900  0.70924700  0.16555100  1
  Cu  Cu23  1  0.29978300  0.69820100  0.49954200  1
  Cu  Cu24  1  0.29711800  0.71134800  0.66572000  1
  Cu  Cu25  1  0.69820100  0.29978300  0.99954200  1
  Cu  Cu26  1  0.70924700  0.29968900  0.66555100  1
  Cu  Cu27  1  0.68362200  0.31346300  0.49510000  1
  Cu  Cu28  1  0.71134800  0.29711800  0.16572000  1
  Cu  Cu29  1  0.71404000  0.29166800  0.33545400  1
  Cu  Cu30  1  0.81372000  0.81676800  0.74625900  1
  Cu  Cu31  1  0.79884500  0.78836800  0.91512800  1
  Cu  Cu32  1  0.78699000  0.79093500  0.58561100  1
  Cu  Cu33  1  0.78836800  0.79884500  0.41512800  1
  Cu  Cu34  1  0.81676800  0.81372000  0.24625900  1
  Cu  Cu35  1  0.79093500  0.78699000  0.08561100  1
