# generated using pymatgen
data_Cu3(NiC6)2
_symmetry_space_group_name_H-M   'P 1'
_cell_length_a   9.23227100
_cell_length_b   8.85305300
_cell_length_c   15.02692990
_cell_angle_alpha   56.03977598
_cell_angle_beta   90.00000000
_cell_angle_gamma   90.00000000
_symmetry_Int_Tables_number   1
_chemical_formula_structural   Cu3(NiC6)2
_chemical_formula_sum   'Cu12 Ni8 C48'
_cell_volume   1018.70700422
_cell_formula_units_Z   4
loop_
 _symmetry_equiv_pos_site_id
 _symmetry_equiv_pos_as_xyz
  1  'x, y, z'
loop_
 _atom_site_type_symbol
 _atom_site_label
 _atom_site_symmetry_multiplicity
 _atom_site_fract_x
 _atom_site_fract_y
 _atom_site_fract_z
 _atom_site_occupancy
  Ni  Ni0  1  0.52992700  0.36917500  0.87772800  1
  Ni  Ni1  1  0.96119500  0.14296000  0.10979200  1
  Ni  Ni2  1  0.02992700  0.63082500  0.62227200  1
  Ni  Ni3  1  0.46119500  0.85704000  0.39020800  1
  Ni  Ni4  1  0.53880500  0.14296000  0.60979200  1
  Ni  Ni5  1  0.97007300  0.36917500  0.37772800  1
  Ni  Ni6  1  0.03880500  0.85704000  0.89020800  1
  Ni  Ni7  1  0.47007300  0.63082500  0.12227200  1
  Cu  Cu8  1  0.22724300  0.45752500  0.00637000  1
  Cu  Cu9  1  0.38893300  0.76647300  0.63937700  1
  Cu  Cu10  1  0.12948700  0.03077600  0.34357200  1
  Cu  Cu11  1  0.62948700  0.96922400  0.15642800  1
  Cu  Cu12  1  0.88893300  0.23352700  0.86062300  1
  Cu  Cu13  1  0.72724300  0.54247500  0.49363000  1
  Cu  Cu14  1  0.27275700  0.45752500  0.50637000  1
  Cu  Cu15  1  0.11106700  0.76647300  0.13937700  1
  Cu  Cu16  1  0.37051300  0.03077600  0.84357200  1
  Cu  Cu17  1  0.87051300  0.96922400  0.65642800  1
  Cu  Cu18  1  0.61106700  0.23352700  0.36062300  1
  Cu  Cu19  1  0.77275700  0.54247500  0.99363000  1
  C  C20  1  0.88453400  0.39546500  0.06219600  1
  C  C21  1  0.84957600  0.84169000  0.62459800  1
  C  C22  1  0.56135600  0.10227800  0.33186500  1
  C  C23  1  0.73733200  0.54650700  0.89749300  1
  C  C24  1  0.35234200  0.48953100  0.93865300  1
  C  C25  1  0.24151400  0.71523800  0.68111500  1
  C  C26  1  0.38435000  0.87121200  0.51711200  1
  C  C27  1  0.02806000  0.12356700  0.24769900  1
  C  C28  1  0.15695500  0.27939100  0.03535700  1
  C  C29  1  0.27263600  0.00013200  0.30406000  1
  C  C30  1  0.06876600  0.85504000  0.42806300  1
  C  C31  1  0.49101600  0.61547800  0.68234500  1
  C  C32  1  0.99101600  0.38452200  0.81765500  1
  C  C33  1  0.56876600  0.14496000  0.07193700  1
  C  C34  1  0.77263600  0.99986800  0.19594000  1
  C  C35  1  0.65695500  0.72060900  0.46464300  1
  C  C36  1  0.88435000  0.12878800  0.98288800  1
  C  C37  1  0.52806000  0.87643300  0.25230100  1
  C  C38  1  0.74151400  0.28476200  0.81888500  1
  C  C39  1  0.85234200  0.51046900  0.56134700  1
  C  C40  1  0.23733200  0.45349300  0.60250700  1
  C  C41  1  0.34957600  0.15831000  0.87540200  1
  C  C42  1  0.06135600  0.89772200  0.16813500  1
  C  C43  1  0.38453400  0.60453500  0.43780400  1
  C  C44  1  0.61546600  0.39546500  0.56219600  1
  C  C45  1  0.93864400  0.10227800  0.83186500  1
  C  C46  1  0.65042400  0.84169000  0.12459800  1
  C  C47  1  0.76266800  0.54650700  0.39749300  1
  C  C48  1  0.14765800  0.48953100  0.43865300  1
  C  C49  1  0.25848600  0.71523800  0.18111500  1
  C  C50  1  0.47194000  0.12356700  0.74769900  1
  C  C51  1  0.11565000  0.87121200  0.01711200  1
  C  C52  1  0.34304500  0.27939100  0.53535700  1
  C  C53  1  0.22736400  0.00013200  0.80406000  1
  C  C54  1  0.43123400  0.85504000  0.92806300  1
  C  C55  1  0.00898400  0.61547800  0.18234500  1
  C  C56  1  0.50898400  0.38452200  0.31765500  1
  C  C57  1  0.93123400  0.14496000  0.57193700  1
  C  C58  1  0.72736400  0.99986800  0.69594000  1
  C  C59  1  0.84304500  0.72060900  0.96464300  1
  C  C60  1  0.97194000  0.87643300  0.75230100  1
  C  C61  1  0.61565000  0.12878800  0.48288800  1
  C  C62  1  0.75848600  0.28476200  0.31888500  1
  C  C63  1  0.64765800  0.51046900  0.06134700  1
  C  C64  1  0.26266800  0.45349300  0.10250700  1
  C  C65  1  0.43864400  0.89772200  0.66813500  1
  C  C66  1  0.15042400  0.15831000  0.37540200  1
  C  C67  1  0.11546600  0.60453500  0.93780400  1
