# generated using pymatgen
data_Cu4NiC2
_symmetry_space_group_name_H-M   'P 1'
_cell_length_a   10.01624437
_cell_length_b   9.94322903
_cell_length_c   9.89200237
_cell_angle_alpha   60.65838702
_cell_angle_beta   59.92373374
_cell_angle_gamma   59.41787924
_symmetry_Int_Tables_number   1
_chemical_formula_structural   Cu4NiC2
_chemical_formula_sum   'Cu32 Ni8 C16'
_cell_volume   696.46351328
_cell_formula_units_Z   8
loop_
 _symmetry_equiv_pos_site_id
 _symmetry_equiv_pos_as_xyz
  1  'x, y, z'
loop_
 _atom_site_type_symbol
 _atom_site_label
 _atom_site_symmetry_multiplicity
 _atom_site_fract_x
 _atom_site_fract_y
 _atom_site_fract_z
 _atom_site_occupancy
  C  C0  1  0.83222600  0.41080500  0.57264500  1
  C  C1  1  0.06567600  0.67735500  0.83919500  1
  C  C2  1  0.06482500  0.67956700  0.41749400  1
  C  C3  1  0.67956700  0.06482500  0.83811400  1
  C  C4  1  0.83250600  0.41188600  0.18517500  1
  C  C5  1  0.41080500  0.83222600  0.18432400  1
  C  C6  1  0.41188600  0.83250600  0.57043300  1
  C  C7  1  0.67187600  0.67187600  0.82812400  1
  C  C8  1  0.67735500  0.06567600  0.41777400  1
  C  C9  1  0.42187600  0.42187600  0.57812400  1
  C  C10  1  0.75293400  0.24717300  0.99960700  1
  C  C11  1  0.25039300  0.24971500  0.49706600  1
  C  C12  1  0.24717300  0.75293400  0.00028500  1
  C  C13  1  0.24971500  0.25039300  0.00282700  1
  C  C14  1  0.87268400  0.87268400  0.62731600  1
  C  C15  1  0.62268400  0.62268400  0.37731600  1
  Ni  Ni16  1  0.46870000  0.11138300  0.20760300  1
  Ni  Ni17  1  0.11138300  0.46870000  0.21231400  1
  Ni  Ni18  1  0.46186000  0.46398800  0.21432800  1
  Ni  Ni19  1  0.46398800  0.46186000  0.85982400  1
  Ni  Ni20  1  0.04239700  0.03768600  0.78130000  1
  Ni  Ni21  1  0.03768600  0.04239700  0.13861700  1
  Ni  Ni22  1  0.03567200  0.39017600  0.78814000  1
  Ni  Ni23  1  0.39017600  0.03567200  0.78601200  1
  Cu  Cu24  1  0.89708100  0.15194800  0.81027200  1
  Cu  Cu25  1  0.35871200  0.10519600  0.18123900  1
  Cu  Cu26  1  0.10519600  0.35871200  0.35485300  1
  Cu  Cu27  1  0.06384500  0.39200800  0.64395600  1
  Cu  Cu28  1  0.10930200  0.43972800  0.09805200  1
  Cu  Cu29  1  0.80730300  0.80749000  0.56455800  1
  Cu  Cu30  1  0.80749000  0.80730300  0.82064800  1
  Cu  Cu31  1  0.60902200  0.11442300  0.09469600  1
  Cu  Cu32  1  0.11442300  0.60902200  0.18185900  1
  Cu  Cu33  1  0.34938600  0.43533600  0.35752600  1
  Cu  Cu34  1  0.43533600  0.34938600  0.85775200  1
  Cu  Cu35  1  0.79969900  0.06337800  0.56826600  1
  Cu  Cu36  1  0.06337800  0.79969900  0.56865700  1
  Cu  Cu37  1  0.06876100  0.89514700  0.89128800  1
  Cu  Cu38  1  0.89514700  0.06876100  0.14480400  1
  Cu  Cu39  1  0.34980900  0.60604400  0.85799200  1
  Cu  Cu40  1  0.15194800  0.89708100  0.14069800  1
  Cu  Cu41  1  0.43492100  0.60545400  0.10229300  1
  Cu  Cu42  1  0.60545400  0.43492100  0.85733200  1
  Cu  Cu43  1  0.68544200  0.42935200  0.44269700  1
  Cu  Cu44  1  0.42935200  0.68544200  0.44251000  1
  Cu  Cu45  1  0.06814100  0.15530400  0.13557700  1
  Cu  Cu46  1  0.15530400  0.06814100  0.64097800  1
  Cu  Cu47  1  0.89247400  0.39224800  0.90061400  1
  Cu  Cu48  1  0.39224800  0.89247400  0.81466400  1
  Cu  Cu49  1  0.68134300  0.68173400  0.18662200  1
  Cu  Cu50  1  0.68173400  0.68134300  0.45030100  1
  Cu  Cu51  1  0.39200800  0.06384500  0.90019100  1
  Cu  Cu52  1  0.43972800  0.10930200  0.35291900  1
  Cu  Cu53  1  0.39266800  0.14770700  0.64454600  1
  Cu  Cu54  1  0.14770700  0.39266800  0.81507900  1
  Cu  Cu55  1  0.60604400  0.34980900  0.18615500  1
