# generated using pymatgen
data_Cu7(NiC)2
_symmetry_space_group_name_H-M   'P 1'
_cell_length_a   13.19959800
_cell_length_b   7.73514979
_cell_length_c   7.84376040
_cell_angle_alpha   92.24587646
_cell_angle_beta   99.81936629
_cell_angle_gamma   91.69380604
_symmetry_Int_Tables_number   1
_chemical_formula_structural   Cu7(NiC)2
_chemical_formula_sum   'Cu28 Ni8 C8'
_cell_volume   787.98196435
_cell_formula_units_Z   4
loop_
 _symmetry_equiv_pos_site_id
 _symmetry_equiv_pos_as_xyz
  1  'x, y, z'
loop_
 _atom_site_type_symbol
 _atom_site_label
 _atom_site_symmetry_multiplicity
 _atom_site_fract_x
 _atom_site_fract_y
 _atom_site_fract_z
 _atom_site_occupancy
  C  C0  1  0.87546300  0.13223000  0.11597300  1
  C  C1  1  0.37855300  0.15477900  0.77673400  1
  C  C2  1  0.79579300  0.34248100  0.55633300  1
  C  C3  1  0.29442600  0.37193100  0.21503900  1
  C  C4  1  0.70557400  0.62806900  0.78496100  1
  C  C5  1  0.20420700  0.65751900  0.44366700  1
  C  C6  1  0.62144700  0.84522100  0.22326600  1
  C  C7  1  0.12453700  0.86777000  0.88402700  1
  Ni  Ni8  1  0.86111300  0.08480100  0.65837900  1
  Ni  Ni9  1  0.38645700  0.10711800  0.27849200  1
  Ni  Ni10  1  0.75989800  0.39104500  0.06548500  1
  Ni  Ni11  1  0.27537700  0.41735200  0.70238500  1
  Ni  Ni12  1  0.72462300  0.58264800  0.29761500  1
  Ni  Ni13  1  0.24010200  0.60895500  0.93451500  1
  Ni  Ni14  1  0.61354300  0.89288200  0.72150800  1
  Ni  Ni15  1  0.13888700  0.91519900  0.34162100  1
  Cu  Cu16  1  0.27100200  0.02394000  0.41044700  1
  Cu  Cu17  1  0.50416000  0.05033600  0.19168700  1
  Cu  Cu18  1  0.99488000  0.05404100  0.77208900  1
  Cu  Cu19  1  0.92055600  0.12657100  0.49517400  1
  Cu  Cu20  1  0.75278600  0.14677700  0.75009600  1
  Cu  Cu21  1  0.26075200  0.14259200  0.16023000  1
  Cu  Cu22  1  0.46841100  0.18527800  0.40713100  1
  Cu  Cu23  1  0.61199900  0.30870000  0.02999400  1
  Cu  Cu24  1  0.89385700  0.36173100  0.18095100  1
  Cu  Cu25  1  0.18732000  0.34321300  0.81933500  1
  Cu  Cu26  1  0.44314000  0.39688300  0.64907700  1
  Cu  Cu27  1  0.82201200  0.44747800  0.91589400  1
  Cu  Cu28  1  0.65720000  0.47153900  0.18440700  1
  Cu  Cu29  1  0.16403500  0.44208500  0.55883200  1
  Cu  Cu30  1  0.83596500  0.55791500  0.44116800  1
  Cu  Cu31  1  0.34280000  0.52846100  0.81559300  1
  Cu  Cu32  1  0.17798800  0.55252200  0.08410600  1
  Cu  Cu33  1  0.55686000  0.60311700  0.35092300  1
  Cu  Cu34  1  0.81268000  0.65678700  0.18066500  1
  Cu  Cu35  1  0.10614300  0.63826900  0.81904900  1
  Cu  Cu36  1  0.38800100  0.69130000  0.97000600  1
  Cu  Cu37  1  0.53158900  0.81472200  0.59286900  1
  Cu  Cu38  1  0.73924800  0.85740800  0.83977000  1
  Cu  Cu39  1  0.24721400  0.85322300  0.24990400  1
  Cu  Cu40  1  0.07944400  0.87342900  0.50482600  1
  Cu  Cu41  1  0.00512000  0.94595900  0.22791100  1
  Cu  Cu42  1  0.49584000  0.94966400  0.80831300  1
  Cu  Cu43  1  0.72899800  0.97606000  0.58955300  1
