# generated using pymatgen
data_CuNi3C10
_symmetry_space_group_name_H-M   'P 1'
_cell_length_a   6.05081466
_cell_length_b   6.05081466
_cell_length_c   9.78105000
_cell_angle_alpha   90.00000000
_cell_angle_beta   90.00000000
_cell_angle_gamma   120.04712708
_symmetry_Int_Tables_number   1
_chemical_formula_structural   CuNi3C10
_chemical_formula_sum   'Cu2 Ni6 C20'
_cell_volume   309.98264270
_cell_formula_units_Z   2
loop_
 _symmetry_equiv_pos_site_id
 _symmetry_equiv_pos_as_xyz
  1  'x, y, z'
loop_
 _atom_site_type_symbol
 _atom_site_label
 _atom_site_symmetry_multiplicity
 _atom_site_fract_x
 _atom_site_fract_y
 _atom_site_fract_z
 _atom_site_occupancy
  C  C0  1  0.66820800  0.33179200  0.09087900  1
  C  C1  1  0.99737400  0.00262600  0.01294000  1
  C  C2  1  0.00262600  0.99737400  0.51294000  1
  C  C3  1  0.33179200  0.66820800  0.59087900  1
  Ni  Ni4  1  0.34431300  0.17293700  0.78440500  1
  Ni  Ni5  1  0.82706300  0.65568700  0.78440500  1
  Ni  Ni6  1  0.83177900  0.16822100  0.78824100  1
  Ni  Ni7  1  0.16822100  0.83177900  0.28824100  1
  Ni  Ni8  1  0.17293700  0.34431300  0.28440500  1
  Ni  Ni9  1  0.65568700  0.82706300  0.28440500  1
  Cu  Cu10  1  0.66524900  0.33475100  0.51281400  1
  Cu  Cu11  1  0.33475100  0.66524900  0.01281400  1
  C  C12  1  0.34578800  0.19148600  0.41355600  1
  C  C13  1  0.51818600  0.48181400  0.65504600  1
  C  C14  1  0.66369400  0.33630600  0.88951500  1
  C  C15  1  0.00470200  0.99529800  0.70170300  1
  C  C16  1  0.99529800  0.00470200  0.20170300  1
  C  C17  1  0.80851400  0.65421200  0.41355600  1
  C  C18  1  0.50528000  0.04399400  0.64375200  1
  C  C19  1  0.95600600  0.49472000  0.64375200  1
  C  C20  1  0.17594700  0.82405300  0.91065300  1
  C  C21  1  0.82405300  0.17594700  0.41065300  1
  C  C22  1  0.04399400  0.50528000  0.14375200  1
  C  C23  1  0.49472000  0.95600600  0.14375200  1
  C  C24  1  0.33630600  0.66369400  0.38951500  1
  C  C25  1  0.19148600  0.34578800  0.91355600  1
  C  C26  1  0.48181400  0.51818600  0.15504600  1
  C  C27  1  0.65421200  0.80851400  0.91355600  1
