# generated using pymatgen
data_Cu3NiC3
_symmetry_space_group_name_H-M   'P 1'
_cell_length_a   5.80709000
_cell_length_b   5.29003400
_cell_length_c   9.84287206
_cell_angle_alpha   82.76339815
_cell_angle_beta   90.00000000
_cell_angle_gamma   90.00000000
_symmetry_Int_Tables_number   1
_chemical_formula_structural   Cu3NiC3
_chemical_formula_sum   'Cu12 Ni4 C12'
_cell_volume   299.96156220
_cell_formula_units_Z   4
loop_
 _symmetry_equiv_pos_site_id
 _symmetry_equiv_pos_as_xyz
  1  'x, y, z'
loop_
 _atom_site_type_symbol
 _atom_site_label
 _atom_site_symmetry_multiplicity
 _atom_site_fract_x
 _atom_site_fract_y
 _atom_site_fract_z
 _atom_site_occupancy
  C  C0  1  0.40264300  0.49441100  0.25933800  1
  C  C1  1  0.62310500  0.73815300  0.01272400  1
  C  C2  1  0.59735700  0.49441100  0.75933800  1
  C  C3  1  0.37689500  0.73815300  0.51272400  1
  C  C4  1  0.12788900  0.96958800  0.24621700  1
  C  C5  1  0.63000700  0.00869000  0.24656900  1
  C  C6  1  0.87211100  0.96958800  0.74621700  1
  C  C7  1  0.36999300  0.00869000  0.74656900  1
  C  C8  1  0.86377400  0.25684200  0.99801800  1
  C  C9  1  0.13622600  0.25684200  0.49801800  1
  C  C10  1  0.10665400  0.74177100  0.99862800  1
  C  C11  1  0.89334600  0.74177100  0.49862800  1
  Ni  Ni12  1  0.12993900  0.59618000  0.39719800  1
  Ni  Ni13  1  0.88972300  0.92267100  0.10322800  1
  Ni  Ni14  1  0.87006100  0.59618000  0.89719800  1
  Ni  Ni15  1  0.11027700  0.92267100  0.60322800  1
  Cu  Cu16  1  0.35658200  0.13998000  0.35880400  1
  Cu  Cu17  1  0.89244100  0.08951200  0.37431600  1
  Cu  Cu18  1  0.12592600  0.39268400  0.11013400  1
  Cu  Cu19  1  0.62582800  0.35721500  0.12672600  1
  Cu  Cu20  1  0.64341800  0.13998000  0.85880400  1
  Cu  Cu21  1  0.10755900  0.08951200  0.87431600  1
  Cu  Cu22  1  0.87407400  0.39268400  0.61013400  1
  Cu  Cu23  1  0.37417200  0.35721500  0.62672600  1
  Cu  Cu24  1  0.62111300  0.68415000  0.38100800  1
  Cu  Cu25  1  0.36837100  0.82728400  0.13397400  1
  Cu  Cu26  1  0.37888700  0.68415000  0.88100800  1
  Cu  Cu27  1  0.63162900  0.82728400  0.63397400  1
