# generated using pymatgen
data_CuNi11C6
_symmetry_space_group_name_H-M   'P 1'
_cell_length_a   4.62055703
_cell_length_b   4.62055703
_cell_length_c   8.98599800
_cell_angle_alpha   90.00000000
_cell_angle_beta   90.00000000
_cell_angle_gamma   91.40251782
_symmetry_Int_Tables_number   1
_chemical_formula_structural   CuNi11C6
_chemical_formula_sum   'Cu1 Ni11 C6'
_cell_volume   191.78951499
_cell_formula_units_Z   1
loop_
 _symmetry_equiv_pos_site_id
 _symmetry_equiv_pos_as_xyz
  1  'x, y, z'
loop_
 _atom_site_type_symbol
 _atom_site_label
 _atom_site_symmetry_multiplicity
 _atom_site_fract_x
 _atom_site_fract_y
 _atom_site_fract_z
 _atom_site_occupancy
  C  C0  1  0.99319400  0.00680600  0.82667200  1
  C  C1  1  0.99691100  0.00308900  0.50000000  1
  C  C2  1  0.99319400  0.00680600  0.17332800  1
  C  C3  1  0.49679100  0.50320900  0.66574500  1
  C  C4  1  0.51976200  0.48023800  0.00000000  1
  C  C5  1  0.49679100  0.50320900  0.33425500  1
  Ni  Ni6  1  0.80520700  0.19479300  0.65947600  1
  Ni  Ni7  1  0.80520700  0.19479300  0.34052400  1
  Ni  Ni8  1  0.81994700  0.18005300  0.00000000  1
  Ni  Ni9  1  0.31023600  0.30622600  0.83341200  1
  Ni  Ni10  1  0.30480700  0.31354200  0.50000000  1
  Ni  Ni11  1  0.31023600  0.30622600  0.16658800  1
  Ni  Ni12  1  0.69377400  0.68976400  0.83341200  1
  Ni  Ni13  1  0.68645800  0.69519300  0.50000000  1
  Ni  Ni14  1  0.69377400  0.68976400  0.16658800  1
  Ni  Ni15  1  0.18569300  0.81430700  0.66309000  1
  Ni  Ni16  1  0.18569300  0.81430700  0.33691000  1
  Cu  Cu17  1  0.20232600  0.79767400  0.00000000  1
