# generated using pymatgen
data_CuNiC10
_symmetry_space_group_name_H-M   'P 1'
_cell_length_a   5.62777700
_cell_length_b   9.06410000
_cell_length_c   10.02927300
_cell_angle_alpha   90.00000000
_cell_angle_beta   90.00000000
_cell_angle_gamma   90.00000000
_symmetry_Int_Tables_number   1
_chemical_formula_structural   CuNiC10
_chemical_formula_sum   'Cu4 Ni4 C40'
_cell_volume   511.60057226
_cell_formula_units_Z   4
loop_
 _symmetry_equiv_pos_site_id
 _symmetry_equiv_pos_as_xyz
  1  'x, y, z'
loop_
 _atom_site_type_symbol
 _atom_site_label
 _atom_site_symmetry_multiplicity
 _atom_site_fract_x
 _atom_site_fract_y
 _atom_site_fract_z
 _atom_site_occupancy
  Ni  Ni0  1  0.25000000  0.52555300  0.82240800  1
  Ni  Ni1  1  0.25000000  0.02555300  0.67759200  1
  Ni  Ni2  1  0.75000000  0.47444700  0.17759200  1
  Ni  Ni3  1  0.75000000  0.97444700  0.32240800  1
  Cu  Cu4  1  0.25000000  0.64028000  0.42560900  1
  Cu  Cu5  1  0.25000000  0.14028000  0.07439100  1
  Cu  Cu6  1  0.75000000  0.35972000  0.57439100  1
  Cu  Cu7  1  0.75000000  0.85972000  0.92560900  1
  C  C8  1  0.25000000  0.77347900  0.11398100  1
  C  C9  1  0.25000000  0.27347900  0.38601900  1
  C  C10  1  0.75000000  0.22652100  0.88601900  1
  C  C11  1  0.75000000  0.72652100  0.61398100  1
  C  C12  1  0.03360900  0.90280000  0.09384500  1
  C  C13  1  0.46639100  0.40280000  0.40615500  1
  C  C14  1  0.53360900  0.09720000  0.90615500  1
  C  C15  1  0.96639100  0.59720000  0.59384500  1
  C  C16  1  0.96639100  0.09720000  0.90615500  1
  C  C17  1  0.53360900  0.59720000  0.59384500  1
  C  C18  1  0.46639100  0.90280000  0.09384500  1
  C  C19  1  0.03360900  0.40280000  0.40615500  1
  C  C20  1  0.03815000  0.73032000  0.23079200  1
  C  C21  1  0.46185000  0.23032000  0.26920800  1
  C  C22  1  0.53815000  0.26968000  0.76920800  1
  C  C23  1  0.96185000  0.76968000  0.73079200  1
  C  C24  1  0.96185000  0.26968000  0.76920800  1
  C  C25  1  0.53815000  0.76968000  0.73079200  1
  C  C26  1  0.46185000  0.73032000  0.23079200  1
  C  C27  1  0.03815000  0.23032000  0.26920800  1
  C  C28  1  0.03656800  0.68533600  0.02195400  1
  C  C29  1  0.46343200  0.18533600  0.47804600  1
  C  C30  1  0.53656800  0.31466400  0.97804600  1
  C  C31  1  0.96343200  0.81466400  0.52195400  1
  C  C32  1  0.96343200  0.31466400  0.97804600  1
  C  C33  1  0.53656800  0.81466400  0.52195400  1
  C  C34  1  0.46343200  0.68533600  0.02195400  1
  C  C35  1  0.03656800  0.18533600  0.47804600  1
  C  C36  1  0.25000000  0.89572400  0.24004800  1
  C  C37  1  0.25000000  0.39572400  0.25995200  1
  C  C38  1  0.75000000  0.10427600  0.75995200  1
  C  C39  1  0.75000000  0.60427600  0.74004800  1
  C  C40  1  0.25000000  0.84218500  0.95810700  1
  C  C41  1  0.25000000  0.34218500  0.54189300  1
  C  C42  1  0.75000000  0.15781500  0.04189300  1
  C  C43  1  0.75000000  0.65781500  0.45810700  1
  C  C44  1  0.25000000  0.59034000  0.14320800  1
  C  C45  1  0.25000000  0.09034000  0.35679200  1
  C  C46  1  0.75000000  0.40966000  0.85679200  1
  C  C47  1  0.75000000  0.90966000  0.64320800  1
