# generated using pymatgen
data_Cu16Ni4C7
_symmetry_space_group_name_H-M   'P 1'
_cell_length_a   9.89834761
_cell_length_b   9.86107717
_cell_length_c   9.63259202
_cell_angle_alpha   61.01777354
_cell_angle_beta   60.63064713
_cell_angle_gamma   58.35157933
_symmetry_Int_Tables_number   1
_chemical_formula_structural   Cu16Ni4C7
_chemical_formula_sum   'Cu32 Ni8 C14'
_cell_volume   664.00904655
_cell_formula_units_Z   2
loop_
 _symmetry_equiv_pos_site_id
 _symmetry_equiv_pos_as_xyz
  1  'x, y, z'
loop_
 _atom_site_type_symbol
 _atom_site_label
 _atom_site_symmetry_multiplicity
 _atom_site_fract_x
 _atom_site_fract_y
 _atom_site_fract_z
 _atom_site_occupancy
  C  C0  1  0.28813100  0.71186900  0.71186900  1
  C  C1  1  0.71033000  0.28967000  0.71033000  1
  C  C2  1  0.96033000  0.53967000  0.96033000  1
  C  C3  1  0.53813100  0.96186900  0.96186900  1
  C  C4  1  0.71186900  0.28813100  0.28813100  1
  C  C5  1  0.28967000  0.71033000  0.28967000  1
  C  C6  1  0.53967000  0.96033000  0.53967000  1
  C  C7  1  0.96186900  0.53813100  0.53813100  1
  C  C8  1  0.12500000  0.12500000  0.62500000  1
  C  C9  1  0.12500000  0.12500000  0.12500000  1
  C  C10  1  0.12500000  0.62500000  0.12500000  1
  C  C11  1  0.62500000  0.12500000  0.12500000  1
  Ni  Ni12  1  0.33347600  0.33891700  0.97999300  1
  Ni  Ni13  1  0.91108300  0.91652400  0.90238700  1
  Ni  Ni14  1  0.34761300  0.97999300  0.33891700  1
  Ni  Ni15  1  0.97999300  0.34761300  0.33347600  1
  Ni  Ni16  1  0.27000700  0.90238700  0.91652400  1
  Ni  Ni17  1  0.90238700  0.27000700  0.91108300  1
  Ni  Ni18  1  0.33891700  0.33347600  0.34761300  1
  Ni  Ni19  1  0.91652400  0.91108300  0.27000700  1
  C  C20  1  0.75000000  0.75000000  0.75000000  1
  C  C21  1  0.50000000  0.50000000  0.50000000  1
  Cu  Cu22  1  0.31062500  0.48303700  0.97444100  1
  Cu  Cu23  1  0.93648700  0.68085200  0.69062000  1
  Cu  Cu24  1  0.21365800  0.31627800  0.98626100  1
  Cu  Cu25  1  0.93372200  0.03634200  0.76619600  1
  Cu  Cu26  1  0.48380400  0.98626100  0.31627800  1
  Cu  Cu27  1  0.02958400  0.76931600  0.92167100  1
  Cu  Cu28  1  0.69204200  0.69062000  0.68085200  1
  Cu  Cu29  1  0.68085200  0.93648700  0.69204200  1
  Cu  Cu30  1  0.92167100  0.27942900  0.02958400  1
  Cu  Cu31  1  0.98626100  0.48380400  0.21365800  1
  Cu  Cu32  1  0.76696300  0.93937500  0.01810300  1
  Cu  Cu33  1  0.69062000  0.69204200  0.93648700  1
  Cu  Cu34  1  0.23189700  0.97444100  0.48303700  1
  Cu  Cu35  1  0.97444100  0.23189700  0.31062500  1
  Cu  Cu36  1  0.48068400  0.22041600  0.97057100  1
  Cu  Cu37  1  0.27942900  0.92167100  0.76931600  1
  Cu  Cu38  1  0.97057100  0.32832900  0.48068400  1
  Cu  Cu39  1  0.76931600  0.02958400  0.27942900  1
  Cu  Cu40  1  0.27555900  0.01810300  0.93937500  1
  Cu  Cu41  1  0.01810300  0.27555900  0.76696300  1
  Cu  Cu42  1  0.55938000  0.55795800  0.31351300  1
  Cu  Cu43  1  0.48303700  0.31062500  0.23189700  1
  Cu  Cu44  1  0.26373900  0.76619600  0.03634200  1
  Cu  Cu45  1  0.32832900  0.97057100  0.22041600  1
  Cu  Cu46  1  0.56914800  0.31351300  0.55795800  1
  Cu  Cu47  1  0.55795800  0.55938000  0.56914800  1
  Cu  Cu48  1  0.22041600  0.48068400  0.32832900  1
  Cu  Cu49  1  0.76619600  0.26373900  0.93372200  1
  Cu  Cu50  1  0.31627800  0.21365800  0.48380400  1
  Cu  Cu51  1  0.03634200  0.93372200  0.26373900  1
  Cu  Cu52  1  0.31351300  0.56914800  0.55938000  1
  Cu  Cu53  1  0.93937500  0.76696300  0.27555900  1
