# generated using pymatgen
data_CuNi11C6
_symmetry_space_group_name_H-M   'P 1'
_cell_length_a   10.28884993
_cell_length_b   10.28884993
_cell_length_c   2.97686400
_cell_angle_alpha   90.00000000
_cell_angle_beta   90.00000000
_cell_angle_gamma   142.31144841
_symmetry_Int_Tables_number   1
_chemical_formula_structural   CuNi11C6
_chemical_formula_sum   'Cu1 Ni11 C6'
_cell_volume   192.66198253
_cell_formula_units_Z   1
loop_
 _symmetry_equiv_pos_site_id
 _symmetry_equiv_pos_as_xyz
  1  'x, y, z'
loop_
 _atom_site_type_symbol
 _atom_site_label
 _atom_site_symmetry_multiplicity
 _atom_site_fract_x
 _atom_site_fract_y
 _atom_site_fract_z
 _atom_site_occupancy
  C  C0  1  0.99879000  0.66655200  0.00000000  1
  C  C1  1  0.49943500  0.16618900  0.50000000  1
  C  C2  1  0.66655200  0.99879000  0.00000000  1
  C  C3  1  0.84900300  0.84900300  0.50000000  1
  C  C4  1  0.16618900  0.49943500  0.50000000  1
  C  C5  1  0.32085000  0.32085000  0.00000000  1
  Ni  Ni6  1  0.68821100  0.35489200  0.00000000  1
  Ni  Ni7  1  0.97736000  0.31036500  0.00000000  1
  Ni  Ni8  1  0.31036500  0.97736000  0.00000000  1
  Ni  Ni9  1  0.60401600  0.06223000  0.50000000  1
  Ni  Ni10  1  0.73028400  0.93311900  0.50000000  1
  Ni  Ni11  1  0.06223000  0.60401600  0.50000000  1
  Ni  Ni12  1  0.35489200  0.68821100  0.00000000  1
  Ni  Ni13  1  0.93311900  0.73028400  0.50000000  1
  Ni  Ni14  1  0.27237700  0.39922000  0.50000000  1
  Ni  Ni15  1  0.39922000  0.27237700  0.50000000  1
  Ni  Ni16  1  0.02506400  0.02506400  0.00000000  1
  Cu  Cu17  1  0.63767200  0.63767200  0.00000000  1
