# generated using pymatgen
data_Cu2Ni2C13
_symmetry_space_group_name_H-M   'P 1'
_cell_length_a   5.22580742
_cell_length_b   5.22580742
_cell_length_c   14.58991435
_cell_angle_alpha   86.80074722
_cell_angle_beta   86.80074722
_cell_angle_gamma   120.13460033
_symmetry_Int_Tables_number   1
_chemical_formula_structural   Cu2Ni2C13
_chemical_formula_sum   'Cu4 Ni4 C26'
_cell_volume   342.42546978
_cell_formula_units_Z   2
loop_
 _symmetry_equiv_pos_site_id
 _symmetry_equiv_pos_as_xyz
  1  'x, y, z'
loop_
 _atom_site_type_symbol
 _atom_site_label
 _atom_site_symmetry_multiplicity
 _atom_site_fract_x
 _atom_site_fract_y
 _atom_site_fract_z
 _atom_site_occupancy
  Ni  Ni0  1  0.16895500  0.65991500  0.26917600  1
  Ni  Ni1  1  0.65991500  0.16895500  0.76917600  1
  Ni  Ni2  1  0.83909400  0.00106700  0.27085500  1
  Ni  Ni3  1  0.00106700  0.83909400  0.77085500  1
  Cu  Cu4  1  0.41453000  0.61246200  0.46064200  1
  Cu  Cu5  1  0.61246200  0.41453000  0.96064200  1
  Cu  Cu6  1  0.07264400  0.92733700  0.46130700  1
  Cu  Cu7  1  0.92733700  0.07264400  0.96130700  1
  C  C8  1  0.67601700  0.30972900  0.34604300  1
  C  C9  1  0.30972900  0.67601700  0.84604300  1
  C  C10  1  0.55501300  0.03721300  0.14169800  1
  C  C11  1  0.03721300  0.55501300  0.64169800  1
  C  C12  1  0.25617500  0.36094500  0.14822600  1
  C  C13  1  0.36094500  0.25617500  0.64822600  1
  C  C14  1  0.86472700  0.69881500  0.14364500  1
  C  C15  1  0.69881500  0.86472700  0.64364500  1
  C  C16  1  0.19794500  0.72234100  0.50807500  1
  C  C17  1  0.72234100  0.19794500  0.00807500  1
  C  C18  1  0.72954400  0.78565600  0.50835800  1
  C  C19  1  0.78565600  0.72954400  0.00835800  1
  C  C20  1  0.27157500  0.25983600  0.49505000  1
  C  C21  1  0.25983600  0.27157500  0.99505000  1
  C  C22  1  0.47023400  0.68875200  0.34973600  1
  C  C23  1  0.68875200  0.47023400  0.84973600  1
  C  C24  1  0.08740100  0.92297400  0.35017500  1
  C  C25  1  0.92297400  0.08740100  0.85017500  1
  C  C26  1  0.86239900  0.30907200  0.34393600  1
  C  C27  1  0.30907200  0.86239900  0.84393600  1
  C  C28  1  0.52374700  0.96206300  0.20627200  1
  C  C29  1  0.96206300  0.52374700  0.70627200  1
  C  C30  1  0.13837400  0.35030200  0.20340800  1
  C  C31  1  0.35030300  0.13837400  0.70340800  1
  C  C32  1  0.91168200  0.74066600  0.20652800  1
  C  C33  1  0.74066600  0.91168200  0.70652800  1
