# generated using pymatgen
data_Cu3Ni3C16
_symmetry_space_group_name_H-M   'P 1'
_cell_length_a   5.18987900
_cell_length_b   6.05010809
_cell_length_c   7.91346186
_cell_angle_alpha   77.74817966
_cell_angle_beta   77.10510488
_cell_angle_gamma   72.97901866
_symmetry_Int_Tables_number   1
_chemical_formula_structural   Cu3Ni3C16
_chemical_formula_sum   'Cu3 Ni3 C16'
_cell_volume   228.70781456
_cell_formula_units_Z   1
loop_
 _symmetry_equiv_pos_site_id
 _symmetry_equiv_pos_as_xyz
  1  'x, y, z'
loop_
 _atom_site_type_symbol
 _atom_site_label
 _atom_site_symmetry_multiplicity
 _atom_site_fract_x
 _atom_site_fract_y
 _atom_site_fract_z
 _atom_site_occupancy
  C  C0  1  0.50242400  0.16561100  0.33455100  1
  C  C1  1  0.49757600  0.83438900  0.66544900  1
  C  C2  1  0.99704600  0.33368100  0.16693500  1
  C  C3  1  0.00295400  0.66631900  0.83306500  1
  Ni  Ni4  1  0.50672200  0.33201200  0.66777200  1
  Ni  Ni5  1  0.50000000  0.00000000  0.00000000  1
  Ni  Ni6  1  0.49327800  0.66798800  0.33222800  1
  Cu  Cu7  1  0.00000000  0.50000000  0.50000000  1
  Cu  Cu8  1  0.99672100  0.16890700  0.83182000  1
  Cu  Cu9  1  0.00327900  0.83109300  0.16818000  1
  C  C10  1  0.75592200  0.48235200  0.73577800  1
  C  C11  1  0.27505000  0.64122600  0.57859100  1
  C  C12  1  0.72495000  0.35877400  0.42140900  1
  C  C13  1  0.72757600  0.01498100  0.76379400  1
  C  C14  1  0.24407800  0.51764800  0.26422200  1
  C  C15  1  0.25996600  0.19003500  0.59477100  1
  C  C16  1  0.75545100  0.13864100  0.07647700  1
  C  C17  1  0.74003400  0.80996500  0.40522900  1
  C  C18  1  0.26307200  0.31283800  0.90640200  1
  C  C19  1  0.27242400  0.98501900  0.23620600  1
  C  C20  1  0.73692800  0.68716200  0.09359800  1
  C  C21  1  0.24454900  0.86135900  0.92352300  1
