# generated using pymatgen
data_CuNiC10
_symmetry_space_group_name_H-M   'P 1'
_cell_length_a   8.40660403
_cell_length_b   8.40740703
_cell_length_c   10.25369813
_cell_angle_alpha   72.23827326
_cell_angle_beta   107.76061391
_cell_angle_gamma   78.68630835
_symmetry_Int_Tables_number   1
_chemical_formula_structural   CuNiC10
_chemical_formula_sum   'Cu4 Ni4 C40'
_cell_volume   622.95023768
_cell_formula_units_Z   4
loop_
 _symmetry_equiv_pos_site_id
 _symmetry_equiv_pos_as_xyz
  1  'x, y, z'
loop_
 _atom_site_type_symbol
 _atom_site_label
 _atom_site_symmetry_multiplicity
 _atom_site_fract_x
 _atom_site_fract_y
 _atom_site_fract_z
 _atom_site_occupancy
  C  C0  1  0.54701100  0.68557000  0.08312000  1
  C  C1  1  0.04714900  0.18489900  0.08345700  1
  C  C2  1  0.93552800  0.79683900  0.91683000  1
  C  C3  1  0.43500200  0.29725500  0.91662800  1
  C  C4  1  0.49960000  0.96537900  0.27544800  1
  C  C5  1  0.99972400  0.46474200  0.27546000  1
  C  C6  1  0.21507800  0.74985600  0.72456500  1
  C  C7  1  0.71498500  0.24951500  0.72451300  1
  C  C8  1  0.43923300  0.31961500  0.33795400  1
  C  C9  1  0.06974300  0.18922400  0.66221700  1
  C  C10  1  0.93954400  0.81946100  0.33776300  1
  C  C11  1  0.56951200  0.68942300  0.66209300  1
  Ni  Ni12  1  0.70166200  0.55165000  0.42533500  1
  Ni  Ni13  1  0.20162000  0.05163300  0.42544700  1
  Ni  Ni14  1  0.80171100  0.95160100  0.57467000  1
  Ni  Ni15  1  0.30148700  0.45171500  0.57459400  1
  Cu  Cu16  1  0.76039400  0.98939900  0.06655000  1
  Cu  Cu17  1  0.26053000  0.48915800  0.06662100  1
  Cu  Cu18  1  0.73938900  0.51033800  0.93332000  1
  Cu  Cu19  1  0.23925200  0.01050700  0.93346300  1
  C  C20  1  0.33737600  0.92850800  0.07005900  1
  C  C21  1  0.83775100  0.42799700  0.06982400  1
  C  C22  1  0.17865800  0.58735800  0.93002200  1
  C  C23  1  0.67795800  0.08787600  0.93008500  1
  C  C24  1  0.90326600  0.85323500  0.11646300  1
  C  C25  1  0.40316500  0.35263300  0.11690800  1
  C  C26  1  0.60322900  0.65321900  0.88333800  1
  C  C27  1  0.10284700  0.15325400  0.88318400  1
  C  C28  1  0.71395900  0.01595700  0.17167900  1
  C  C29  1  0.21381700  0.51636500  0.17145900  1
  C  C30  1  0.76606600  0.46383000  0.82828600  1
  C  C31  1  0.26643200  0.96379800  0.82861600  1
  C  C32  1  0.57871400  0.48608800  0.32084400  1
  C  C33  1  0.07912600  0.98562500  0.32105000  1
  C  C34  1  0.73590000  0.82884800  0.67902400  1
  C  C35  1  0.23553000  0.32912000  0.67896400  1
  C  C36  1  0.78137700  0.65962600  0.32372300  1
  C  C37  1  0.28110000  0.16005100  0.32384900  1
  C  C38  1  0.91005000  0.03101900  0.67634700  1
  C  C39  1  0.40947200  0.53143900  0.67620900  1
  C  C40  1  0.64711300  0.09491800  0.43623400  1
  C  C41  1  0.14709400  0.59489600  0.43578100  1
  C  C42  1  0.84476500  0.39699400  0.56387800  1
  C  C43  1  0.34498700  0.89723200  0.56409700  1
  C  C44  1  0.59127400  0.67812700  0.47127200  1
  C  C45  1  0.09106700  0.17785200  0.47147100  1
  C  C46  1  0.92787300  0.84131400  0.52849500  1
  C  C47  1  0.42790700  0.34106400  0.52879500  1
