# generated using pymatgen
data_CuNiC6
_symmetry_space_group_name_H-M   'P 1'
_cell_length_a   5.10058600
_cell_length_b   6.45432200
_cell_length_c   10.95788400
_cell_angle_alpha   90.00000000
_cell_angle_beta   90.00000000
_cell_angle_gamma   90.00000000
_symmetry_Int_Tables_number   1
_chemical_formula_structural   CuNiC6
_chemical_formula_sum   'Cu4 Ni4 C24'
_cell_volume   360.74257532
_cell_formula_units_Z   4
loop_
 _symmetry_equiv_pos_site_id
 _symmetry_equiv_pos_as_xyz
  1  'x, y, z'
loop_
 _atom_site_type_symbol
 _atom_site_label
 _atom_site_symmetry_multiplicity
 _atom_site_fract_x
 _atom_site_fract_y
 _atom_site_fract_z
 _atom_site_occupancy
  C  C0  1  0.72179300  0.87012000  0.08748700  1
  C  C1  1  0.19255400  0.11762600  0.16725200  1
  C  C2  1  0.69255400  0.61762600  0.33274800  1
  C  C3  1  0.22179300  0.37012000  0.41251300  1
  C  C4  1  0.77820700  0.87012000  0.58748700  1
  C  C5  1  0.30744600  0.11762600  0.66725200  1
  C  C6  1  0.80744600  0.61762600  0.83274800  1
  C  C7  1  0.27820700  0.37012000  0.91251300  1
  Ni  Ni8  1  0.18468300  0.61771200  0.16617100  1
  Ni  Ni9  1  0.68468300  0.11771200  0.33382900  1
  Ni  Ni10  1  0.31531700  0.61771200  0.66617100  1
  Ni  Ni11  1  0.81531700  0.11771200  0.83382900  1
  Cu  Cu12  1  0.68689100  0.36539400  0.08623800  1
  Cu  Cu13  1  0.18689100  0.86539400  0.41376200  1
  Cu  Cu14  1  0.81310900  0.36539400  0.58623800  1
  Cu  Cu15  1  0.31310900  0.86539400  0.91376200  1
  C  C16  1  0.27484900  0.84691900  0.08494100  1
  C  C17  1  0.31204800  0.39017300  0.09497500  1
  C  C18  1  0.83424300  0.60487400  0.16036500  1
  C  C19  1  0.79327500  0.12927900  0.17891900  1
  C  C20  1  0.29327500  0.62927900  0.32108100  1
  C  C21  1  0.33424300  0.10487400  0.33963500  1
  C  C22  1  0.81204800  0.89017300  0.40502500  1
  C  C23  1  0.77484900  0.34691900  0.41505900  1
  C  C24  1  0.22515100  0.84691900  0.58494100  1
  C  C25  1  0.18795200  0.39017300  0.59497500  1
  C  C26  1  0.66575700  0.60487400  0.66036500  1
  C  C27  1  0.70672500  0.12927900  0.67891900  1
  C  C28  1  0.20672500  0.62927900  0.82108100  1
  C  C29  1  0.16575700  0.10487400  0.83963500  1
  C  C30  1  0.68795200  0.89017300  0.90502500  1
  C  C31  1  0.72515100  0.34691900  0.91505900  1
