# generated using pymatgen
data_CuNiC18
_symmetry_space_group_name_H-M   'P 1'
_cell_length_a   8.73991867
_cell_length_b   8.73991867
_cell_length_c   8.65260382
_cell_angle_alpha   60.81299796
_cell_angle_beta   60.81299796
_cell_angle_gamma   60.55840467
_symmetry_Int_Tables_number   1
_chemical_formula_structural   CuNiC18
_chemical_formula_sum   'Cu2 Ni2 C36'
_cell_volume   475.02770165
_cell_formula_units_Z   2
loop_
 _symmetry_equiv_pos_site_id
 _symmetry_equiv_pos_as_xyz
  1  'x, y, z'
loop_
 _atom_site_type_symbol
 _atom_site_label
 _atom_site_symmetry_multiplicity
 _atom_site_fract_x
 _atom_site_fract_y
 _atom_site_fract_z
 _atom_site_occupancy
  C  C0  1  0.89171600  0.73748900  0.71018900  1
  C  C1  1  0.34866100  0.04064600  0.67527500  1
  C  C2  1  0.73748900  0.89171600  0.21018900  1
  C  C3  1  0.36019600  0.61876400  0.75279000  1
  C  C4  1  0.61876400  0.36019600  0.25279000  1
  C  C5  1  0.04064600  0.34866100  0.17527500  1
  Ni  Ni6  1  0.64997300  0.15290800  0.63869700  1
  Ni  Ni7  1  0.15290800  0.64997300  0.13869700  1
  Cu  Cu8  1  0.85246900  0.35680400  0.85995600  1
  Cu  Cu9  1  0.35680400  0.85246900  0.35995600  1
  C  C10  1  0.52960800  0.75234300  0.95432100  1
  C  C11  1  0.75234300  0.52960800  0.45432100  1
  C  C12  1  0.94989500  0.04929100  0.25669100  1
  C  C13  1  0.24614300  0.47462200  0.53748100  1
  C  C14  1  0.04929100  0.94989500  0.75669100  1
  C  C15  1  0.47462200  0.24614300  0.03748100  1
  C  C16  1  0.72289400  0.59851300  0.91931700  1
  C  C17  1  0.38086300  0.71448800  0.93972100  1
  C  C18  1  0.75445300  0.47818400  0.64862400  1
  C  C19  1  0.71448800  0.38086300  0.43972100  1
  C  C20  1  0.54809100  0.93543200  0.79195900  1
  C  C21  1  0.92709400  0.24481700  0.10107500  1
  C  C22  1  0.93543200  0.54809100  0.29195900  1
  C  C23  1  0.01051400  0.11420100  0.80769700  1
  C  C24  1  0.89802700  0.96836500  0.70078500  1
  C  C25  1  0.59851300  0.72289400  0.41931700  1
  C  C26  1  0.24481700  0.92709400  0.60107500  1
  C  C27  1  0.52730600  0.25780000  0.83425900  1
  C  C28  1  0.47818400  0.75445300  0.14862400  1
  C  C29  1  0.76174000  0.06472100  0.42514400  1
  C  C30  1  0.38856400  0.27796800  0.57871100  1
  C  C31  1  0.11420100  0.01051400  0.30769700  1
  C  C32  1  0.96836500  0.89802700  0.20078500  1
  C  C33  1  0.05008300  0.48302800  0.68253900  1
  C  C34  1  0.06472100  0.76174000  0.92514400  1
  C  C35  1  0.48302800  0.05008300  0.18253900  1
  C  C36  1  0.29345200  0.61887600  0.54922800  1
  C  C37  1  0.25780000  0.52730600  0.33425900  1
  C  C38  1  0.61887600  0.29345200  0.04922800  1
  C  C39  1  0.27796800  0.38856400  0.07871100  1
