# generated using pymatgen
data_CuNiC14
_symmetry_space_group_name_H-M   'P 1'
_cell_length_a   5.19032700
_cell_length_b   7.53938413
_cell_length_c   14.92904658
_cell_angle_alpha   93.56459084
_cell_angle_beta   92.63797641
_cell_angle_gamma   108.76266781
_symmetry_Int_Tables_number   1
_chemical_formula_structural   CuNiC14
_chemical_formula_sum   'Cu3 Ni3 C42'
_cell_volume   550.73729513
_cell_formula_units_Z   3
loop_
 _symmetry_equiv_pos_site_id
 _symmetry_equiv_pos_as_xyz
  1  'x, y, z'
loop_
 _atom_site_type_symbol
 _atom_site_label
 _atom_site_symmetry_multiplicity
 _atom_site_fract_x
 _atom_site_fract_y
 _atom_site_fract_z
 _atom_site_occupancy
  C  C0  1  0.76953900  0.84965000  0.03895400  1
  C  C1  1  0.56548200  0.48522600  0.29460000  1
  C  C2  1  0.23046100  0.15035000  0.96104600  1
  C  C3  1  0.43451800  0.51477400  0.70540000  1
  C  C4  1  0.10305300  0.18576500  0.37243300  1
  C  C5  1  0.89694700  0.81423500  0.62756700  1
  Ni  Ni6  1  0.83427300  0.83359200  0.83289100  1
  Ni  Ni7  1  0.50000000  0.00000000  0.50000000  1
  Ni  Ni8  1  0.16572700  0.16640800  0.16710900  1
  Cu  Cu9  1  0.83296300  0.33282600  0.83349800  1
  Cu  Cu10  1  0.50000000  0.50000000  0.50000000  1
  Cu  Cu11  1  0.16703700  0.66717400  0.16650200  1
  C  C12  1  0.72275800  0.28390600  0.04913200  1
  C  C13  1  0.60819800  0.04911600  0.28552300  1
  C  C14  1  0.39180200  0.95088400  0.71447700  1
  C  C15  1  0.27724200  0.71609400  0.95086800  1
  C  C16  1  0.06307000  0.62138200  0.38111300  1
  C  C17  1  0.93693000  0.37861800  0.61888700  1
  C  C18  1  0.81759100  0.18060100  0.57027600  1
  C  C19  1  0.69285900  0.04818200  0.38698600  1
  C  C20  1  0.59587300  0.83514100  0.72331600  1
  C  C21  1  0.49230900  0.85308500  0.23746200  1
  C  C22  1  0.63869300  0.28600900  0.94812700  1
  C  C23  1  0.79182100  0.50471600  0.41843900  1
  C  C24  1  0.73335900  0.49317000  0.61168400  1
  C  C25  1  0.44753800  0.16674400  0.08571000  1
  C  C26  1  0.50769100  0.14691500  0.76253800  1
  C  C27  1  0.40412700  0.16485900  0.27668400  1
  C  C28  1  0.30714100  0.95181800  0.61301400  1
  C  C29  1  0.55246200  0.83325600  0.91429000  1
  C  C30  1  0.11506500  0.83452500  0.75044600  1
  C  C31  1  0.36130700  0.71399100  0.05187300  1
  C  C32  1  0.26664100  0.50683000  0.38831600  1
  C  C33  1  0.15923600  0.51958200  0.90357400  1
  C  C34  1  0.20817900  0.49528400  0.58156100  1
  C  C35  1  0.92798600  0.16839400  0.05748600  1
  C  C36  1  0.88493500  0.16547500  0.24955400  1
  C  C37  1  0.02540100  0.37264500  0.71926200  1
  C  C38  1  0.18240900  0.81939900  0.42972400  1
  C  C39  1  0.07201400  0.83160600  0.94251400  1
  C  C40  1  0.97459900  0.62735500  0.28073800  1
  C  C41  1  0.84076400  0.48041800  0.09642600  1
  C  C42  1  0.67238800  0.53527800  0.80828600  1
  C  C43  1  0.65973400  0.78082700  0.52517300  1
  C  C44  1  0.34026600  0.21917300  0.47482700  1
  C  C45  1  0.32761200  0.46472200  0.19171400  1
  C  C46  1  0.00497000  0.86865400  0.14108200  1
  C  C47  1  0.99503000  0.13134600  0.85891800  1
