# generated using pymatgen
data_Cu3Ni7C2
_symmetry_space_group_name_H-M   'P 1'
_cell_length_a   12.22116700
_cell_length_b   11.24002800
_cell_length_c   14.98861724
_cell_angle_alpha   79.12744029
_cell_angle_beta   90.00000000
_cell_angle_gamma   90.00000000
_symmetry_Int_Tables_number   1
_chemical_formula_structural   Cu3Ni7C2
_chemical_formula_sum   'Cu12 Ni28 C8'
_cell_volume   2021.97075797
_cell_formula_units_Z   4
loop_
 _symmetry_equiv_pos_site_id
 _symmetry_equiv_pos_as_xyz
  1  'x, y, z'
loop_
 _atom_site_type_symbol
 _atom_site_label
 _atom_site_symmetry_multiplicity
 _atom_site_fract_x
 _atom_site_fract_y
 _atom_site_fract_z
 _atom_site_occupancy
  C  C0  1  0.52421700  0.31286600  0.94542700  1
  C  C1  1  0.02421700  0.68713400  0.55457300  1
  C  C2  1  0.47578300  0.68713400  0.05457300  1
  C  C3  1  0.97578300  0.31286600  0.44542700  1
  C  C4  1  0.51671800  0.75991900  0.62060600  1
  C  C5  1  0.01671800  0.24008100  0.87939400  1
  C  C6  1  0.48328200  0.24008100  0.37939400  1
  C  C7  1  0.98328200  0.75991900  0.12060600  1
  Ni  Ni8  1  0.43496600  0.81262900  0.91466100  1
  Ni  Ni9  1  0.93496600  0.18737100  0.58533900  1
  Ni  Ni10  1  0.56503400  0.18737100  0.08533900  1
  Ni  Ni11  1  0.06503400  0.81262900  0.41466100  1
  Ni  Ni12  1  0.49445200  0.19087900  0.83540500  1
  Ni  Ni13  1  0.99445200  0.80912100  0.66459500  1
  Ni  Ni14  1  0.50554800  0.80912100  0.16459500  1
  Ni  Ni15  1  0.00554800  0.19087900  0.33540500  1
  Ni  Ni16  1  0.36382600  0.42630300  0.95640500  1
  Ni  Ni17  1  0.86382600  0.57369700  0.54359500  1
  Ni  Ni18  1  0.63617400  0.57369700  0.04359500  1
  Ni  Ni19  1  0.13617400  0.42630300  0.45640500  1
  Ni  Ni20  1  0.58102200  0.57096000  0.68665800  1
  Ni  Ni21  1  0.08102200  0.42904000  0.81334200  1
  Ni  Ni22  1  0.41897800  0.42904000  0.31334200  1
  Ni  Ni23  1  0.91897800  0.57096000  0.18665800  1
  Ni  Ni24  1  0.56180600  0.80408400  0.46868600  1
  Ni  Ni25  1  0.06180600  0.19591600  0.03131400  1
  Ni  Ni26  1  0.43819400  0.19591600  0.53131400  1
  Ni  Ni27  1  0.93819400  0.80408400  0.96868600  1
  Ni  Ni28  1  0.59697600  0.90180400  0.69228300  1
  Ni  Ni29  1  0.09697600  0.09819600  0.80771700  1
  Ni  Ni30  1  0.40302400  0.09819600  0.30771700  1
  Ni  Ni31  1  0.90302400  0.90180400  0.19228300  1
  Ni  Ni32  1  0.82856200  0.23790800  0.86481400  1
  Ni  Ni33  1  0.32856200  0.76209200  0.63518600  1
  Ni  Ni34  1  0.17143800  0.76209200  0.13518600  1
  Ni  Ni35  1  0.67143800  0.23790800  0.36481400  1
  Cu  Cu36  1  0.68050500  0.95795800  0.96203000  1
  Cu  Cu37  1  0.18050500  0.04204200  0.53797000  1
  Cu  Cu38  1  0.31949500  0.04204200  0.03797000  1
  Cu  Cu39  1  0.81949500  0.95795800  0.46203000  1
  Cu  Cu40  1  0.81906500  0.29524800  0.13742500  1
  Cu  Cu41  1  0.31906500  0.70475200  0.36257500  1
  Cu  Cu42  1  0.18093500  0.70475200  0.86257500  1
  Cu  Cu43  1  0.68093500  0.29524800  0.63742500  1
  Cu  Cu44  1  0.69003900  0.60900000  0.32671600  1
  Cu  Cu45  1  0.19003900  0.39100000  0.17328400  1
  Cu  Cu46  1  0.30996100  0.39100000  0.67328400  1
  Cu  Cu47  1  0.80996100  0.60900000  0.82671600  1
