# generated using pymatgen
data_CuNiC11
_symmetry_space_group_name_H-M   'P 1'
_cell_length_a   6.51904900
_cell_length_b   5.29019500
_cell_length_c   9.05636822
_cell_angle_alpha   86.66076650
_cell_angle_beta   90.00000000
_cell_angle_gamma   90.00000000
_symmetry_Int_Tables_number   1
_chemical_formula_structural   CuNiC11
_chemical_formula_sum   'Cu2 Ni2 C22'
_cell_volume   311.79705658
_cell_formula_units_Z   2
loop_
 _symmetry_equiv_pos_site_id
 _symmetry_equiv_pos_as_xyz
  1  'x, y, z'
loop_
 _atom_site_type_symbol
 _atom_site_label
 _atom_site_symmetry_multiplicity
 _atom_site_fract_x
 _atom_site_fract_y
 _atom_site_fract_z
 _atom_site_occupancy
  C  C0  1  0.49436400  0.24254400  0.27353200  1
  C  C1  1  0.99436400  0.75745600  0.72646800  1
  C  C2  1  0.50563600  0.75745600  0.72646800  1
  C  C3  1  0.00563600  0.24254400  0.27353200  1
  C  C4  1  0.75000000  0.21696500  0.91614700  1
  C  C5  1  0.25000000  0.78303500  0.08385300  1
  C  C6  1  0.25000000  0.24095700  0.65312500  1
  C  C7  1  0.75000000  0.75904300  0.34687500  1
  Ni  Ni8  1  0.75000000  0.30734800  0.58130500  1
  Ni  Ni9  1  0.25000000  0.69265200  0.41869500  1
  Cu  Cu10  1  0.25000000  0.29147800  0.94751400  1
  Cu  Cu11  1  0.75000000  0.70852200  0.05248600  1
  C  C12  1  0.25000000  0.09620500  0.86398000  1
  C  C13  1  0.75000000  0.90379500  0.13602000  1
  C  C14  1  0.25000000  0.51813000  0.88727600  1
  C  C15  1  0.75000000  0.48187000  0.11272400  1
  C  C16  1  0.25000000  0.24624500  0.08920700  1
  C  C17  1  0.75000000  0.75375500  0.91079300  1
  C  C18  1  0.93864400  0.23921400  0.68296000  1
  C  C19  1  0.43864400  0.76078600  0.31704000  1
  C  C20  1  0.06135600  0.76078600  0.31704000  1
  C  C21  1  0.56135600  0.23921400  0.68296000  1
  C  C22  1  0.75000000  0.16915300  0.43812200  1
  C  C23  1  0.25000000  0.83084700  0.56187800  1
  C  C24  1  0.25000000  0.39708700  0.45248900  1
  C  C25  1  0.75000000  0.60291300  0.54751100  1
