# generated using pymatgen
data_Cu12Ni2C23
_symmetry_space_group_name_H-M   'P 1'
_cell_length_a   11.73914607
_cell_length_b   11.73914607
_cell_length_c   17.14224362
_cell_angle_alpha   56.76203638
_cell_angle_beta   56.76203638
_cell_angle_gamma   22.15721218
_symmetry_Int_Tables_number   1
_chemical_formula_structural   Cu12Ni2C23
_chemical_formula_sum   'Cu24 Ni4 C46'
_cell_volume   739.03249397
_cell_formula_units_Z   2
loop_
 _symmetry_equiv_pos_site_id
 _symmetry_equiv_pos_as_xyz
  1  'x, y, z'
loop_
 _atom_site_type_symbol
 _atom_site_label
 _atom_site_symmetry_multiplicity
 _atom_site_fract_x
 _atom_site_fract_y
 _atom_site_fract_z
 _atom_site_occupancy
  C  C0  1  0.40816900  0.30294800  0.99290000  1
  C  C1  1  0.30294800  0.40816900  0.49290000  1
  C  C2  1  0.59183100  0.69705200  0.00710000  1
  C  C3  1  0.69705200  0.59183100  0.50710000  1
  Ni  Ni4  1  0.53959600  0.55566600  0.39358500  1
  Ni  Ni5  1  0.46040400  0.44433400  0.60641500  1
  Ni  Ni6  1  0.55566600  0.53959600  0.89358500  1
  Ni  Ni7  1  0.44433400  0.46040400  0.10641500  1
  Cu  Cu8  1  0.04956400  0.06213300  0.00663400  1
  Cu  Cu9  1  0.02959200  0.94229600  0.82772300  1
  Cu  Cu10  1  0.61990500  0.88798300  0.31920000  1
  Cu  Cu11  1  0.94229600  0.02959200  0.32772300  1
  Cu  Cu12  1  0.08754100  0.57979000  0.29552100  1
  Cu  Cu13  1  0.42021000  0.91245900  0.20447900  1
  Cu  Cu14  1  0.57979000  0.08754100  0.79552100  1
  Cu  Cu15  1  0.38009500  0.11201700  0.68080000  1
  Cu  Cu16  1  0.81129000  0.86798000  0.65568100  1
  Cu  Cu17  1  0.88798300  0.61990500  0.81920000  1
  Cu  Cu18  1  0.06213300  0.04956400  0.50663400  1
  Cu  Cu19  1  0.26195200  0.56185200  0.79942700  1
  Cu  Cu20  1  0.93786700  0.95043600  0.49336600  1
  Cu  Cu21  1  0.05770400  0.97040800  0.67227700  1
  Cu  Cu22  1  0.73804800  0.43814800  0.20057300  1
  Cu  Cu23  1  0.86798000  0.81129000  0.15568200  1
  Cu  Cu24  1  0.18871000  0.13202000  0.34431800  1
  Cu  Cu25  1  0.13202000  0.18871000  0.84431800  1
  Cu  Cu26  1  0.43814800  0.73804800  0.70057300  1
  Cu  Cu27  1  0.56185200  0.26195200  0.29942700  1
  Cu  Cu28  1  0.11201700  0.38009500  0.18080000  1
  Cu  Cu29  1  0.91245900  0.42021000  0.70447900  1
  Cu  Cu30  1  0.97040800  0.05770400  0.17227700  1
  Cu  Cu31  1  0.95043600  0.93786700  0.99336600  1
  C  C32  1  0.03931000  0.75340500  0.57537100  1
  C  C33  1  0.68855200  0.21521900  0.20564700  1
  C  C34  1  0.83492200  0.11288300  0.90696300  1
  C  C35  1  0.60528000  0.68599100  0.16438200  1
  C  C36  1  0.21521900  0.68855200  0.70564700  1
  C  C37  1  0.69025600  0.15430900  0.36305700  1
  C  C38  1  0.01745500  0.59301900  0.12041000  1
  C  C39  1  0.39472000  0.31400900  0.83561800  1
  C  C40  1  0.31400900  0.39472000  0.33561800  1
  C  C41  1  0.24659500  0.96069000  0.92462900  1
  C  C42  1  0.15430900  0.69025600  0.86305700  1
  C  C43  1  0.70282700  0.85271000  0.85717200  1
  C  C44  1  0.78478100  0.31144800  0.29435300  1
  C  C45  1  0.02017400  0.39379600  0.27478900  1
  C  C46  1  0.86564600  0.13435400  0.75000000  1
  C  C47  1  0.67342700  0.25256300  0.49622600  1
  C  C48  1  0.59301900  0.01745500  0.62041000  1
  C  C49  1  0.16507800  0.88711700  0.09303700  1
  C  C50  1  0.25256300  0.67342700  0.99622600  1
  C  C51  1  0.98254500  0.40698100  0.87959000  1
  C  C52  1  0.40698100  0.98254500  0.37959000  1
  C  C53  1  0.75340500  0.03931000  0.07537100  1
  C  C54  1  0.63420600  0.10039600  0.69939400  1
  C  C55  1  0.10039600  0.63420600  0.19939400  1
  C  C56  1  0.13435400  0.86564600  0.25000000  1
  C  C57  1  0.68599100  0.60528000  0.66438200  1
  C  C58  1  0.32657300  0.74743700  0.50377400  1
  C  C59  1  0.36579400  0.89960400  0.30060600  1
  C  C60  1  0.84569100  0.30974400  0.13694300  1
  C  C61  1  0.74743700  0.32657300  0.00377400  1
  C  C62  1  0.97982600  0.60620400  0.72521100  1
  C  C63  1  0.60620400  0.97982600  0.22521100  1
  C  C64  1  0.11288300  0.83492200  0.40696300  1
  C  C65  1  0.96069000  0.24659500  0.42462900  1
  C  C66  1  0.89960400  0.36579400  0.80060600  1
  C  C67  1  0.31144800  0.78478100  0.79435300  1
  C  C68  1  0.30974400  0.84569100  0.63694300  1
  C  C69  1  0.85271000  0.70282700  0.35717200  1
  C  C70  1  0.39379600  0.02017400  0.77478900  1
  C  C71  1  0.14729000  0.29717300  0.64282800  1
  C  C72  1  0.88711700  0.16507800  0.59303700  1
  C  C73  1  0.29717300  0.14729000  0.14282800  1
