# generated using pymatgen
data_Cu2Ni3C11
_symmetry_space_group_name_H-M   'P 1'
_cell_length_a   12.13133961
_cell_length_b   12.13133961
_cell_length_c   17.32140921
_cell_angle_alpha   80.72060340
_cell_angle_beta   80.72060340
_cell_angle_gamma   26.06090736
_symmetry_Int_Tables_number   1
_chemical_formula_structural   Cu2Ni3C11
_chemical_formula_sum   'Cu8 Ni12 C44'
_cell_volume   1104.47656508
_cell_formula_units_Z   4
loop_
 _symmetry_equiv_pos_site_id
 _symmetry_equiv_pos_as_xyz
  1  'x, y, z'
loop_
 _atom_site_type_symbol
 _atom_site_label
 _atom_site_symmetry_multiplicity
 _atom_site_fract_x
 _atom_site_fract_y
 _atom_site_fract_z
 _atom_site_occupancy
  C  C0  1  0.56718900  0.49586400  0.11040000  1
  C  C1  1  0.50413600  0.43281100  0.38960000  1
  C  C2  1  0.43281100  0.50413600  0.88960000  1
  C  C3  1  0.49586400  0.56718900  0.61040000  1
  Ni  Ni4  1  0.90335900  0.75779000  0.05047700  1
  Ni  Ni5  1  0.24221000  0.09664100  0.44952300  1
  Ni  Ni6  1  0.09664100  0.24221000  0.94952300  1
  Ni  Ni7  1  0.75779000  0.90335900  0.55047700  1
  Ni  Ni8  1  0.03333900  0.63335100  0.29482500  1
  Ni  Ni9  1  0.36664900  0.96666100  0.20517500  1
  Ni  Ni10  1  0.96666100  0.36664900  0.70517500  1
  Ni  Ni11  1  0.63335100  0.03333900  0.79482500  1
  Ni  Ni12  1  0.86351200  0.94859800  0.16336700  1
  Ni  Ni13  1  0.05140200  0.13648800  0.33663300  1
  Ni  Ni14  1  0.13648800  0.05140200  0.83663300  1
  Ni  Ni15  1  0.94859800  0.86351200  0.66336700  1
  Cu  Cu16  1  0.93824200  0.87322900  0.07157900  1
  Cu  Cu17  1  0.12677100  0.06175800  0.42842100  1
  Cu  Cu18  1  0.06175800  0.12677100  0.92842100  1
  Cu  Cu19  1  0.87322900  0.93824200  0.57157900  1
  Cu  Cu20  1  0.01258800  0.80145700  0.24554900  1
  Cu  Cu21  1  0.19854300  0.98741200  0.25445100  1
  Cu  Cu22  1  0.98741200  0.19854300  0.75445100  1
  Cu  Cu23  1  0.80145700  0.01258800  0.74554900  1
  C  C24  1  0.75972900  0.09430700  0.01958700  1
  C  C25  1  0.90569300  0.24027100  0.48041300  1
  C  C26  1  0.24027100  0.90569300  0.98041300  1
  C  C27  1  0.09430700  0.75972900  0.51958700  1
  C  C28  1  0.20632100  0.65451200  0.05545700  1
  C  C29  1  0.34548800  0.79367900  0.44454300  1
  C  C30  1  0.79367900  0.34548800  0.94454300  1
  C  C31  1  0.65451200  0.20632100  0.55545700  1
  C  C32  1  0.86887900  0.98001100  0.30423000  1
  C  C33  1  0.01998900  0.13112100  0.19577000  1
  C  C34  1  0.13112100  0.01998900  0.69577000  1
  C  C35  1  0.98001100  0.86887900  0.80423000  1
  C  C36  1  0.27694500  0.59449900  0.23069300  1
  C  C37  1  0.40550100  0.72305500  0.26930700  1
  C  C38  1  0.72305500  0.40550100  0.76930700  1
  C  C39  1  0.59449900  0.27694500  0.73069300  1
  C  C40  1  0.65992400  0.94441400  0.05663500  1
  C  C41  1  0.05558600  0.34007600  0.44336500  1
  C  C42  1  0.34007600  0.05558600  0.94336500  1
  C  C43  1  0.94441400  0.65992400  0.55663500  1
  C  C44  1  0.99211600  0.67674200  0.97602600  1
  C  C45  1  0.32325800  0.00788400  0.52397400  1
  C  C46  1  0.00788400  0.32325800  0.02397400  1
  C  C47  1  0.67674200  0.99211600  0.47602600  1
  C  C48  1  0.03567900  0.56571000  0.09971900  1
  C  C49  1  0.43429000  0.96432100  0.40028100  1
  C  C50  1  0.96432100  0.43429000  0.90028100  1
  C  C51  1  0.56571000  0.03567900  0.59971900  1
  C  C52  1  0.80303600  0.79515500  0.31217500  1
  C  C53  1  0.20484500  0.19696400  0.18782500  1
  C  C54  1  0.19696400  0.20484500  0.68782500  1
  C  C55  1  0.79515500  0.80303600  0.81217500  1
  C  C56  1  0.16357200  0.45357600  0.25002800  1
  C  C57  1  0.54642400  0.83642800  0.24997200  1
  C  C58  1  0.83642800  0.54642400  0.74997200  1
  C  C59  1  0.45357600  0.16357200  0.75002800  1
  C  C60  1  0.15559800  0.52305200  0.36269700  1
  C  C61  1  0.47694800  0.84440200  0.13730300  1
  C  C62  1  0.84440200  0.47694800  0.63730300  1
  C  C63  1  0.52305200  0.15559800  0.86269700  1
