# generated using pymatgen
data_Cu2NiC8
_symmetry_space_group_name_H-M   'P 1'
_cell_length_a   9.90688811
_cell_length_b   9.90688811
_cell_length_c   10.55474425
_cell_angle_alpha   65.39380806
_cell_angle_beta   65.39380806
_cell_angle_gamma   67.92314767
_symmetry_Int_Tables_number   1
_chemical_formula_structural   Cu2NiC8
_chemical_formula_sum   'Cu4 Ni2 C16'
_cell_volume   830.22726196
_cell_formula_units_Z   2
loop_
 _symmetry_equiv_pos_site_id
 _symmetry_equiv_pos_as_xyz
  1  'x, y, z'
loop_
 _atom_site_type_symbol
 _atom_site_label
 _atom_site_symmetry_multiplicity
 _atom_site_fract_x
 _atom_site_fract_y
 _atom_site_fract_z
 _atom_site_occupancy
  Ni  Ni0  1  0.96908700  0.03091300  0.25000000  1
  Ni  Ni1  1  0.03091300  0.96908700  0.75000000  1
  Cu  Cu2  1  0.49121900  0.94279500  0.22855800  1
  Cu  Cu3  1  0.94279500  0.49121900  0.72855800  1
  Cu  Cu4  1  0.05720500  0.50878100  0.27144200  1
  Cu  Cu5  1  0.50878100  0.05720500  0.77144200  1
  C  C6  1  0.60024300  0.66782200  0.32524100  1
  C  C7  1  0.21208200  0.97981700  0.41257900  1
  C  C8  1  0.94076000  0.36645600  0.20638200  1
  C  C9  1  0.32510400  0.98221000  0.05536700  1
  C  C10  1  0.66782200  0.60024300  0.82524100  1
  C  C11  1  0.97981700  0.21208200  0.91257900  1
  C  C12  1  0.36645600  0.94076000  0.70638200  1
  C  C13  1  0.98221000  0.32510400  0.55536700  1
  C  C14  1  0.01779000  0.67489600  0.44463300  1
  C  C15  1  0.63354400  0.05924000  0.29361800  1
  C  C16  1  0.02018300  0.78791800  0.08742100  1
  C  C17  1  0.33217800  0.39975700  0.17475900  1
  C  C18  1  0.67489600  0.01779000  0.94463300  1
  C  C19  1  0.05924000  0.63354400  0.79361800  1
  C  C20  1  0.78791800  0.02018300  0.58742100  1
  C  C21  1  0.39975700  0.33217800  0.67475900  1
