# generated using pymatgen
data_CuNi2C7
_symmetry_space_group_name_H-M   'P 1'
_cell_length_a   14.43205500
_cell_length_b   7.59506200
_cell_length_c   13.27807921
_cell_angle_alpha   83.16779894
_cell_angle_beta   90.00000000
_cell_angle_gamma   90.00000000
_symmetry_Int_Tables_number   1
_chemical_formula_structural   CuNi2C7
_chemical_formula_sum   'Cu4 Ni8 C28'
_cell_volume   1445.10612732
_cell_formula_units_Z   4
loop_
 _symmetry_equiv_pos_site_id
 _symmetry_equiv_pos_as_xyz
  1  'x, y, z'
loop_
 _atom_site_type_symbol
 _atom_site_label
 _atom_site_symmetry_multiplicity
 _atom_site_fract_x
 _atom_site_fract_y
 _atom_site_fract_z
 _atom_site_occupancy
  Ni  Ni0  1  0.54434800  0.76919500  0.74400200  1
  Ni  Ni1  1  0.13630100  0.73513500  0.62474100  1
  Ni  Ni2  1  0.78550500  0.74740000  0.12505500  1
  Ni  Ni3  1  0.36898700  0.70172600  0.23318400  1
  Ni  Ni4  1  0.86898700  0.29827400  0.76681600  1
  Ni  Ni5  1  0.28550500  0.25260000  0.87494500  1
  Ni  Ni6  1  0.63630100  0.26486500  0.37525900  1
  Ni  Ni7  1  0.04434800  0.23080500  0.25599800  1
  Cu  Cu8  1  0.84495000  0.81321100  0.54713500  1
  Cu  Cu9  1  0.07614900  0.79532100  0.04439400  1
  Cu  Cu10  1  0.57614900  0.20467900  0.95560600  1
  Cu  Cu11  1  0.34495000  0.18678900  0.45286500  1
  C  C12  1  0.70599100  0.96232000  0.89015500  1
  C  C13  1  0.43721000  0.94113900  0.98370300  1
  C  C14  1  0.49719100  0.95806600  0.50234500  1
  C  C15  1  0.15139300  0.88406700  0.85558000  1
  C  C16  1  0.23317800  0.91021900  0.39426600  1
  C  C17  1  0.77131200  0.89270800  0.35596900  1
  C  C18  1  0.91482400  0.79122200  0.74429900  1
  C  C19  1  0.01048200  0.77223500  0.24455400  1
  C  C20  1  0.33611000  0.61621400  0.72730600  1
  C  C21  1  0.58705500  0.62277000  0.22445600  1
  C  C22  1  0.70151500  0.57031500  0.60730400  1
  C  C23  1  0.70522000  0.47946700  0.90270300  1
  C  C24  1  0.95461400  0.51847000  0.52959600  1
  C  C25  1  0.45071500  0.46520800  0.98899400  1
  C  C26  1  0.95071500  0.53479200  0.01100600  1
  C  C27  1  0.45461400  0.48153000  0.47040400  1
  C  C28  1  0.20522000  0.52053300  0.09729700  1
  C  C29  1  0.20151500  0.42968500  0.39269600  1
  C  C30  1  0.08705500  0.37723000  0.77554400  1
  C  C31  1  0.83611000  0.38378600  0.27269400  1
  C  C32  1  0.51048200  0.22776500  0.75544600  1
  C  C33  1  0.41482400  0.20877800  0.25570100  1
  C  C34  1  0.27131200  0.10729200  0.64403100  1
  C  C35  1  0.73317800  0.08978100  0.60573400  1
  C  C36  1  0.65139300  0.11593300  0.14442000  1
  C  C37  1  0.99719100  0.04193400  0.49765500  1
  C  C38  1  0.93721000  0.05886100  0.01629700  1
  C  C39  1  0.20599100  0.03768000  0.10984500  1
