# generated using pymatgen
data_CuNi2
_symmetry_space_group_name_H-M   'P 1'
_cell_length_a   13.65548100
_cell_length_b   13.65548100
_cell_length_c   4.28044900
_cell_angle_alpha   90.00000000
_cell_angle_beta   90.00000000
_cell_angle_gamma   90.00000000
_symmetry_Int_Tables_number   1
_chemical_formula_structural   CuNi2
_chemical_formula_sum   'Cu16 Ni32'
_cell_volume   798.18457654
_cell_formula_units_Z   16
loop_
 _symmetry_equiv_pos_site_id
 _symmetry_equiv_pos_as_xyz
  1  'x, y, z'
loop_
 _atom_site_type_symbol
 _atom_site_label
 _atom_site_symmetry_multiplicity
 _atom_site_fract_x
 _atom_site_fract_y
 _atom_site_fract_z
 _atom_site_occupancy
  Ni  Ni0  1  0.81037400  0.13149600  0.64783700  1
  Ni  Ni1  1  0.18962600  0.86850400  0.64783700  1
  Ni  Ni2  1  0.86850400  0.81037400  0.14783700  1
  Ni  Ni3  1  0.13149600  0.18962600  0.14783700  1
  Ni  Ni4  1  0.89384300  0.06038000  0.34723800  1
  Ni  Ni5  1  0.10615700  0.93962000  0.34723800  1
  Ni  Ni6  1  0.93962000  0.89384300  0.84723800  1
  Ni  Ni7  1  0.06038000  0.10615700  0.84723800  1
  Ni  Ni8  1  0.31074800  0.12874100  0.64684100  1
  Ni  Ni9  1  0.68925200  0.87125900  0.64684100  1
  Ni  Ni10  1  0.87125900  0.31074800  0.14684100  1
  Ni  Ni11  1  0.12874100  0.68925200  0.14684100  1
  Ni  Ni12  1  0.39497600  0.05718200  0.34994000  1
  Ni  Ni13  1  0.60502400  0.94281800  0.34994000  1
  Ni  Ni14  1  0.94281800  0.39497600  0.84994000  1
  Ni  Ni15  1  0.05718200  0.60502400  0.84994000  1
  Ni  Ni16  1  0.81287100  0.63164300  0.64138000  1
  Ni  Ni17  1  0.18712900  0.36835700  0.64138000  1
  Ni  Ni18  1  0.36835700  0.81287100  0.14138000  1
  Ni  Ni19  1  0.63164300  0.18712900  0.14138000  1
  Ni  Ni20  1  0.89506500  0.56039200  0.34323200  1
  Ni  Ni21  1  0.10493500  0.43960800  0.34323200  1
  Ni  Ni22  1  0.43960800  0.89506500  0.84323200  1
  Ni  Ni23  1  0.56039200  0.10493500  0.84323200  1
  Ni  Ni24  1  0.31274300  0.62898000  0.35893600  1
  Ni  Ni25  1  0.68725700  0.37102000  0.35893600  1
  Ni  Ni26  1  0.37102000  0.31274300  0.85893600  1
  Ni  Ni27  1  0.62898000  0.68725700  0.85893600  1
  Ni  Ni28  1  0.39583200  0.55762700  0.65410300  1
  Ni  Ni29  1  0.60416800  0.44237300  0.65410300  1
  Ni  Ni30  1  0.44237300  0.39583200  0.15410300  1
  Ni  Ni31  1  0.55762700  0.60416800  0.15410300  1
  Cu  Cu32  1  0.89792500  0.14642700  0.50628900  1
  Cu  Cu33  1  0.10207500  0.85357300  0.50628900  1
  Cu  Cu34  1  0.85357300  0.89792500  0.00628900  1
  Cu  Cu35  1  0.14642700  0.10207500  0.00628900  1
  Cu  Cu36  1  0.39781100  0.14443200  0.50301800  1
  Cu  Cu37  1  0.60218900  0.85556800  0.50301800  1
  Cu  Cu38  1  0.85556800  0.39781100  0.00301800  1
  Cu  Cu39  1  0.14443200  0.60218900  0.00301800  1
  Cu  Cu40  1  0.90181300  0.64523700  0.50869100  1
  Cu  Cu41  1  0.09818700  0.35476300  0.50869100  1
  Cu  Cu42  1  0.35476300  0.90181300  0.00869100  1
  Cu  Cu43  1  0.64523700  0.09818700  0.00869100  1
  Cu  Cu44  1  0.40151900  0.64332200  0.49249500  1
  Cu  Cu45  1  0.59848100  0.35667800  0.49249500  1
  Cu  Cu46  1  0.35667800  0.40151900  0.99249500  1
  Cu  Cu47  1  0.64332200  0.59848100  0.99249500  1
