# generated using pymatgen
data_Cu7Ni5C6
_symmetry_space_group_name_H-M   'P 1'
_cell_length_a   5.66615200
_cell_length_b   5.70557475
_cell_length_c   7.40923659
_cell_angle_alpha   72.75917785
_cell_angle_beta   71.99228371
_cell_angle_gamma   73.37660293
_symmetry_Int_Tables_number   1
_chemical_formula_structural   Cu7Ni5C6
_chemical_formula_sum   'Cu7 Ni5 C6'
_cell_volume   212.51739099
_cell_formula_units_Z   1
loop_
 _symmetry_equiv_pos_site_id
 _symmetry_equiv_pos_as_xyz
  1  'x, y, z'
loop_
 _atom_site_type_symbol
 _atom_site_label
 _atom_site_symmetry_multiplicity
 _atom_site_fract_x
 _atom_site_fract_y
 _atom_site_fract_z
 _atom_site_occupancy
  C  C0  1  0.32028700  0.30068800  0.16274000  1
  C  C1  1  0.63782800  0.69019500  0.33223600  1
  C  C2  1  0.37606100  0.32149000  0.69078600  1
  C  C3  1  0.67077800  0.69268400  0.82109400  1
  C  C4  1  0.00251900  0.00131300  0.50192300  1
  C  C5  1  0.99233300  0.99261200  0.99470400  1
  Ni  Ni6  1  0.35958600  0.97763000  0.33072500  1
  Ni  Ni7  1  0.76867400  0.77085200  0.03516500  1
  Ni  Ni8  1  0.21794600  0.21971500  0.97035900  1
  Ni  Ni9  1  0.57592600  0.57230200  0.62601300  1
  Ni  Ni10  1  0.64562400  0.02889600  0.66934200  1
  Cu  Cu11  1  0.04380200  0.61413100  0.67493500  1
  Cu  Cu12  1  0.11122500  0.10644600  0.70885600  1
  Cu  Cu13  1  0.42713500  0.43223500  0.36715000  1
  Cu  Cu14  1  0.89832800  0.90038400  0.28696000  1
  Cu  Cu15  1  0.96275200  0.38809800  0.32272500  1
  Cu  Cu16  1  0.30414100  0.68346700  0.00311900  1
  Cu  Cu17  1  0.68505700  0.30686200  0.00116700  1
