# generated using pymatgen
data_Cu8Ni3C32
_symmetry_space_group_name_H-M   'P 1'
_cell_length_a   9.81431617
_cell_length_b   9.81431617
_cell_length_c   14.34933458
_cell_angle_alpha   89.75970408
_cell_angle_beta   89.75970408
_cell_angle_gamma   60.18746356
_symmetry_Int_Tables_number   1
_chemical_formula_structural   Cu8Ni3C32
_chemical_formula_sum   'Cu16 Ni6 C64'
_cell_volume   1199.20842583
_cell_formula_units_Z   2
loop_
 _symmetry_equiv_pos_site_id
 _symmetry_equiv_pos_as_xyz
  1  'x, y, z'
loop_
 _atom_site_type_symbol
 _atom_site_label
 _atom_site_symmetry_multiplicity
 _atom_site_fract_x
 _atom_site_fract_y
 _atom_site_fract_z
 _atom_site_occupancy
  C  C0  1  0.05281600  0.96528800  0.49652400  1
  C  C1  1  0.96528800  0.05281600  0.99652400  1
  C  C2  1  0.32462300  0.90362700  0.05123300  1
  C  C3  1  0.90362700  0.32462300  0.55123300  1
  C  C4  1  0.77385900  0.89809600  0.55181100  1
  C  C5  1  0.89809600  0.77385900  0.05181100  1
  Ni  Ni6  1  0.43640500  0.56155700  0.74940300  1
  Ni  Ni7  1  0.56155700  0.43640500  0.24940300  1
  Ni  Ni8  1  0.43406100  0.00186000  0.25340200  1
  Ni  Ni9  1  0.56128400  0.00397200  0.74937000  1
  Ni  Ni10  1  0.00186000  0.43406100  0.75340200  1
  Ni  Ni11  1  0.00397200  0.56128400  0.24937000  1
  Cu  Cu12  1  0.30484000  0.77620300  0.34584400  1
  Cu  Cu13  1  0.30991100  0.91307100  0.84248000  1
  Cu  Cu14  1  0.77620300  0.30484000  0.84584400  1
  Cu  Cu15  1  0.66601200  0.66924500  0.12812400  1
  Cu  Cu16  1  0.66924500  0.66601200  0.62812400  1
  Cu  Cu17  1  0.91307100  0.30991100  0.34248000  1
  Cu  Cu18  1  0.08346600  0.21991600  0.15712800  1
  Cu  Cu19  1  0.77632400  0.91213600  0.34451300  1
  Cu  Cu20  1  0.21991600  0.08346600  0.65712800  1
  Cu  Cu21  1  0.91213600  0.77632400  0.84451300  1
  Cu  Cu22  1  0.08519400  0.69380000  0.66111200  1
  Cu  Cu23  1  0.33330800  0.33371100  0.87220000  1
  Cu  Cu24  1  0.33371100  0.33330800  0.37220000  1
  Cu  Cu25  1  0.22381800  0.69625600  0.15795700  1
  Cu  Cu26  1  0.69380000  0.08519400  0.16111200  1
  Cu  Cu27  1  0.69625600  0.22381800  0.65795700  1
  C  C28  1  0.20628200  0.78819500  0.25278600  1
  C  C29  1  0.21318100  0.79516200  0.07714900  1
  C  C30  1  0.33635100  0.74411700  0.83382300  1
  C  C31  1  0.20433400  0.01033000  0.75512700  1
  C  C32  1  0.19970900  0.00303900  0.57667400  1
  C  C33  1  0.33620100  0.91717300  0.33895100  1
  C  C34  1  0.46510100  0.61989000  0.33661800  1
  C  C35  1  0.51920100  0.67762800  0.67506100  1
  C  C36  1  0.61989000  0.46510100  0.83661800  1
  C  C37  1  0.79516200  0.21318100  0.57714900  1
  C  C38  1  0.78819500  0.20628200  0.75278600  1
  C  C39  1  0.74411700  0.33635100  0.33382300  1
  C  C40  1  0.51060800  0.81341500  0.16988100  1
  C  C41  1  0.47315900  0.90398200  0.83176200  1
  C  C42  1  0.67762800  0.51920100  0.17506100  1
  C  C43  1  0.66198000  0.67737400  0.02517100  1
  C  C44  1  0.67737400  0.66198000  0.52517100  1
  C  C45  1  0.81341500  0.51060800  0.66988100  1
  C  C46  1  0.62368200  0.90086700  0.33340800  1
  C  C47  1  0.68012100  0.81311400  0.66635900  1
  C  C48  1  0.91717300  0.33620100  0.83895100  1
  C  C49  1  0.01033000  0.20433400  0.25512700  1
  C  C50  1  0.00303900  0.19970900  0.07667400  1
  C  C51  1  0.98521700  0.22839900  0.43122600  1
  C  C52  1  0.90398200  0.47315900  0.33176200  1
  C  C53  1  0.81311400  0.68012100  0.16635900  1
  C  C54  1  0.07952200  0.25836500  0.66004800  1
  C  C55  1  0.90086700  0.62368200  0.83340800  1
  C  C56  1  0.74360400  0.91940500  0.83423500  1
  C  C57  1  0.22839900  0.98521700  0.93122600  1
  C  C58  1  0.79623900  0.99255100  0.08228600  1
  C  C59  1  0.78454000  0.01213200  0.25842400  1
  C  C60  1  0.25836500  0.07952200  0.16004800  1
  C  C61  1  0.08744000  0.37731800  0.16246100  1
  C  C62  1  0.91940500  0.74360400  0.33423500  1
  C  C63  1  0.19447400  0.31638800  0.82719400  1
  C  C64  1  0.08706500  0.53409200  0.66711000  1
  C  C65  1  0.99255100  0.79623900  0.58228600  1
  C  C66  1  0.98223100  0.78581100  0.93380900  1
  C  C67  1  0.01213200  0.78454000  0.75842400  1
  C  C68  1  0.08144900  0.66447900  0.15729200  1
  C  C69  1  0.31638800  0.19447400  0.32719400  1
  C  C70  1  0.37731800  0.08744000  0.66246100  1
  C  C71  1  0.19391200  0.48779800  0.32604600  1
  C  C72  1  0.33273800  0.33325500  0.97459100  1
  C  C73  1  0.33325500  0.33273800  0.47459100  1
  C  C74  1  0.31769900  0.48803400  0.82617500  1
  C  C75  1  0.53409200  0.08706500  0.16711000  1
  C  C76  1  0.48779800  0.19391200  0.82604600  1
  C  C77  1  0.25713500  0.66058700  0.66009200  1
  C  C78  1  0.20816800  0.79202400  0.42799900  1
  C  C79  1  0.37728500  0.53366700  0.16388500  1
  C  C80  1  0.48803400  0.31769900  0.32617500  1
  C  C81  1  0.53366700  0.37728500  0.66388500  1
  C  C82  1  0.66447900  0.08144900  0.65729200  1
  C  C83  1  0.78581100  0.98223100  0.43380900  1
  C  C84  1  0.66058700  0.25713500  0.16009200  1
  C  C85  1  0.79202400  0.20816800  0.92799900  1
