# generated using pymatgen
data_Cu3(NiC6)2
_symmetry_space_group_name_H-M   'P 1'
_cell_length_a   8.36873723
_cell_length_b   8.36873723
_cell_length_c   9.29531936
_cell_angle_alpha   68.60466095
_cell_angle_beta   68.60466095
_cell_angle_gamma   66.05904815
_symmetry_Int_Tables_number   1
_chemical_formula_structural   Cu3(NiC6)2
_chemical_formula_sum   'Cu6 Ni4 C24'
_cell_volume   535.71684817
_cell_formula_units_Z   2
loop_
 _symmetry_equiv_pos_site_id
 _symmetry_equiv_pos_as_xyz
  1  'x, y, z'
loop_
 _atom_site_type_symbol
 _atom_site_label
 _atom_site_symmetry_multiplicity
 _atom_site_fract_x
 _atom_site_fract_y
 _atom_site_fract_z
 _atom_site_occupancy
  Ni  Ni0  1  0.37127200  0.85609900  0.47303800  1
  Ni  Ni1  1  0.85609900  0.37127200  0.97303800  1
  Ni  Ni2  1  0.14390100  0.62872800  0.02696200  1
  Ni  Ni3  1  0.62872800  0.14390100  0.52696200  1
  Cu  Cu4  1  0.75465100  0.54401000  0.32655000  1
  Cu  Cu5  1  0.54401000  0.75465100  0.82655000  1
  Cu  Cu6  1  0.06055600  0.93944400  0.25000000  1
  Cu  Cu7  1  0.93944400  0.06055600  0.75000000  1
  Cu  Cu8  1  0.45599000  0.24534900  0.17345000  1
  Cu  Cu9  1  0.24534900  0.45599000  0.67345000  1
  C  C10  1  0.89067500  0.94857100  0.37601000  1
  C  C11  1  0.94857100  0.89067500  0.87601000  1
  C  C12  1  0.86204300  0.51120700  0.43040600  1
  C  C13  1  0.61067300  0.72908000  0.31116600  1
  C  C14  1  0.86591400  0.54080100  0.15601600  1
  C  C15  1  0.51120700  0.86204300  0.93040600  1
  C  C16  1  0.21527500  0.89387400  0.31989800  1
  C  C17  1  0.65540000  0.40733800  0.37814100  1
  C  C18  1  0.72908000  0.61067300  0.81116600  1
  C  C19  1  0.54080100  0.86591400  0.65601600  1
  C  C20  1  0.89387400  0.21527500  0.81989800  1
  C  C21  1  0.59266200  0.34460000  0.12185900  1
  C  C22  1  0.40733800  0.65540000  0.87814100  1
  C  C23  1  0.10612600  0.78472500  0.18010200  1
  C  C24  1  0.45919900  0.13408600  0.34398400  1
  C  C25  1  0.27092000  0.38932700  0.18883400  1
  C  C26  1  0.34460000  0.59266200  0.62185900  1
  C  C27  1  0.78472500  0.10612600  0.68010200  1
  C  C28  1  0.48879300  0.13795700  0.06959400  1
  C  C29  1  0.13408600  0.45919900  0.84398400  1
  C  C30  1  0.38932700  0.27092000  0.68883400  1
  C  C31  1  0.13795700  0.48879300  0.56959400  1
  C  C32  1  0.05142900  0.10932500  0.12399000  1
  C  C33  1  0.10932500  0.05142900  0.62399000  1
