# generated using pymatgen
data_Cu3NiC6
_symmetry_space_group_name_H-M   'P 1'
_cell_length_a   6.98810800
_cell_length_b   8.01842700
_cell_length_c   16.32860800
_cell_angle_alpha   90.00000000
_cell_angle_beta   90.00000000
_cell_angle_gamma   90.00000000
_symmetry_Int_Tables_number   1
_chemical_formula_structural   Cu3NiC6
_chemical_formula_sum   'Cu24 Ni8 C48'
_cell_volume   914.95124222
_cell_formula_units_Z   8
loop_
 _symmetry_equiv_pos_site_id
 _symmetry_equiv_pos_as_xyz
  1  'x, y, z'
loop_
 _atom_site_type_symbol
 _atom_site_label
 _atom_site_symmetry_multiplicity
 _atom_site_fract_x
 _atom_site_fract_y
 _atom_site_fract_z
 _atom_site_occupancy
  C  C0  1  0.37461700  0.18280300  0.45305500  1
  C  C1  1  0.12538300  0.31719700  0.95305500  1
  C  C2  1  0.87461700  0.31719700  0.54694500  1
  C  C3  1  0.62538300  0.18280300  0.04694500  1
  C  C4  1  0.62538300  0.81719700  0.54694500  1
  C  C5  1  0.87461700  0.68280300  0.04694500  1
  C  C6  1  0.12538300  0.68280300  0.45305500  1
  C  C7  1  0.37461700  0.81719700  0.95305500  1
  Ni  Ni8  1  0.87131800  0.05824700  0.39088000  1
  Ni  Ni9  1  0.62868200  0.44175300  0.89088000  1
  Ni  Ni10  1  0.37131800  0.44175300  0.60912000  1
  Ni  Ni11  1  0.12868200  0.05824700  0.10912000  1
  Ni  Ni12  1  0.12868200  0.94175300  0.60912000  1
  Ni  Ni13  1  0.37131800  0.55824700  0.10912000  1
  Ni  Ni14  1  0.62868200  0.55824700  0.39088000  1
  Ni  Ni15  1  0.87131800  0.94175300  0.89088000  1
  Cu  Cu16  1  0.68692400  0.23480500  0.31673300  1
  Cu  Cu17  1  0.81307600  0.26519500  0.81673300  1
  Cu  Cu18  1  0.18692400  0.26519500  0.68326700  1
  Cu  Cu19  1  0.31307600  0.23480500  0.18326700  1
  Cu  Cu20  1  0.31307600  0.76519500  0.68326700  1
  Cu  Cu21  1  0.18692400  0.73480500  0.18326700  1
  Cu  Cu22  1  0.81307600  0.73480500  0.31673300  1
  Cu  Cu23  1  0.68692400  0.76519500  0.81673300  1
  Cu  Cu24  1  0.31543200  0.01141700  0.28763900  1
  Cu  Cu25  1  0.18456800  0.48858300  0.78763900  1
  Cu  Cu26  1  0.81543200  0.48858300  0.71236100  1
  Cu  Cu27  1  0.68456800  0.01141700  0.21236100  1
  Cu  Cu28  1  0.68456800  0.98858300  0.71236100  1
  Cu  Cu29  1  0.81543200  0.51141700  0.21236100  1
  Cu  Cu30  1  0.18456800  0.51141700  0.28763900  1
  Cu  Cu31  1  0.31543200  0.98858300  0.78763900  1
  Cu  Cu32  1  0.41904600  0.87812800  0.34794800  1
  Cu  Cu33  1  0.08095400  0.62187200  0.84794800  1
  Cu  Cu34  1  0.91904600  0.62187200  0.65205200  1
  Cu  Cu35  1  0.58095400  0.87812800  0.15205200  1
  Cu  Cu36  1  0.58095400  0.12187200  0.65205200  1
  Cu  Cu37  1  0.91904600  0.37812800  0.15205200  1
  Cu  Cu38  1  0.08095400  0.37812800  0.34794800  1
  Cu  Cu39  1  0.41904600  0.12187200  0.84794800  1
  C  C40  1  0.78003400  0.14411000  0.29864700  1
  C  C41  1  0.71996600  0.35589000  0.79864700  1
  C  C42  1  0.28003400  0.35589000  0.70135300  1
  C  C43  1  0.21996600  0.14411000  0.20135300  1
  C  C44  1  0.21996600  0.85589000  0.70135300  1
  C  C45  1  0.28003400  0.64411000  0.20135300  1
  C  C46  1  0.71996600  0.64411000  0.29864700  1
  C  C47  1  0.78003400  0.85589000  0.79864700  1
  C  C48  1  0.04002600  0.19562300  0.42666600  1
  C  C49  1  0.45997400  0.30437700  0.92666600  1
  C  C50  1  0.54002600  0.30437700  0.57333400  1
  C  C51  1  0.95997400  0.19562300  0.07333400  1
  C  C52  1  0.95997400  0.80437700  0.57333400  1
  C  C53  1  0.54002600  0.69562300  0.07333400  1
  C  C54  1  0.45997400  0.69562300  0.42666600  1
  C  C55  1  0.04002600  0.80437700  0.92666600  1
  C  C56  1  0.95245100  0.86486400  0.36731400  1
  C  C57  1  0.54754900  0.63513600  0.86731400  1
  C  C58  1  0.45245100  0.63513600  0.63268600  1
  C  C59  1  0.04754900  0.86486400  0.13268600  1
  C  C60  1  0.04754900  0.13513600  0.63268600  1
  C  C61  1  0.45245100  0.36486400  0.13268600  1
  C  C62  1  0.54754900  0.36486400  0.36731400  1
  C  C63  1  0.95245100  0.13513600  0.86731400  1
  C  C64  1  0.69586800  0.05926400  0.46516300  1
  C  C65  1  0.80413200  0.44073600  0.96516300  1
  C  C66  1  0.19586800  0.44073600  0.53483700  1
  C  C67  1  0.30413200  0.05926400  0.03483700  1
  C  C68  1  0.30413200  0.94073600  0.53483700  1
  C  C69  1  0.19586800  0.55926400  0.03483700  1
  C  C70  1  0.80413200  0.55926400  0.46516300  1
  C  C71  1  0.69586800  0.94073600  0.96516300  1
  C  C72  1  0.37805600  0.99438300  0.34133300  1
  C  C73  1  0.12194400  0.50561700  0.84133300  1
  C  C74  1  0.87805600  0.50561700  0.65866700  1
  C  C75  1  0.62194400  0.99438300  0.15866700  1
  C  C76  1  0.62194400  0.00561700  0.65866700  1
  C  C77  1  0.87805600  0.49438300  0.15866700  1
  C  C78  1  0.12194400  0.49438300  0.34133300  1
  C  C79  1  0.37805600  0.00561700  0.84133300  1
