# generated using pymatgen
data_Cu(NiC7)2
_symmetry_space_group_name_H-M   'P 1'
_cell_length_a   5.65358400
_cell_length_b   11.13952000
_cell_length_c   12.29820800
_cell_angle_alpha   90.00000000
_cell_angle_beta   90.00000000
_cell_angle_gamma   90.00000000
_symmetry_Int_Tables_number   1
_chemical_formula_structural   Cu(NiC7)2
_chemical_formula_sum   'Cu4 Ni8 C56'
_cell_volume   774.51915113
_cell_formula_units_Z   4
loop_
 _symmetry_equiv_pos_site_id
 _symmetry_equiv_pos_as_xyz
  1  'x, y, z'
loop_
 _atom_site_type_symbol
 _atom_site_label
 _atom_site_symmetry_multiplicity
 _atom_site_fract_x
 _atom_site_fract_y
 _atom_site_fract_z
 _atom_site_occupancy
  Ni  Ni0  1  0.19107600  0.53205700  0.16715700  1
  Ni  Ni1  1  0.19107600  0.96794300  0.16715700  1
  Ni  Ni2  1  0.30892400  0.46794300  0.66715700  1
  Ni  Ni3  1  0.30892400  0.03205700  0.66715700  1
  Ni  Ni4  1  0.69107600  0.53205700  0.33284300  1
  Ni  Ni5  1  0.69107600  0.96794300  0.33284300  1
  Ni  Ni6  1  0.80892400  0.03205700  0.83284300  1
  Ni  Ni7  1  0.80892400  0.46794300  0.83284300  1
  Cu  Cu8  1  0.02123500  0.25000000  0.03936500  1
  Cu  Cu9  1  0.47876500  0.75000000  0.53936500  1
  Cu  Cu10  1  0.52123500  0.25000000  0.46063500  1
  Cu  Cu11  1  0.97876500  0.75000000  0.96063500  1
  C  C12  1  0.02082900  0.75000000  0.45545100  1
  C  C13  1  0.06411800  0.25000000  0.39233100  1
  C  C14  1  0.20615200  0.67679500  0.38073200  1
  C  C15  1  0.20615200  0.82320500  0.38073200  1
  C  C16  1  0.22885500  0.17793300  0.30547500  1
  C  C17  1  0.22885500  0.32206700  0.30547500  1
  C  C18  1  0.27114500  0.82206700  0.80547500  1
  C  C19  1  0.27114500  0.67793300  0.80547500  1
  C  C20  1  0.29384800  0.32320500  0.88073200  1
  C  C21  1  0.29384800  0.17679500  0.88073200  1
  C  C22  1  0.43588200  0.75000000  0.89233100  1
  C  C23  1  0.47917100  0.25000000  0.95545100  1
  C  C24  1  0.52082900  0.75000000  0.04454900  1
  C  C25  1  0.56411800  0.25000000  0.10766900  1
  C  C26  1  0.70615200  0.67679500  0.11926800  1
  C  C27  1  0.70615200  0.82320500  0.11926800  1
  C  C28  1  0.72885500  0.17793300  0.19452500  1
  C  C29  1  0.72885500  0.32206700  0.19452500  1
  C  C30  1  0.77114500  0.67793300  0.69452500  1
  C  C31  1  0.77114500  0.82206700  0.69452500  1
  C  C32  1  0.79384800  0.17679500  0.61926800  1
  C  C33  1  0.79384800  0.32320500  0.61926800  1
  C  C34  1  0.93588200  0.75000000  0.60766900  1
  C  C35  1  0.97917100  0.25000000  0.54454900  1
  C  C36  1  0.19314200  0.75000000  0.43039900  1
  C  C37  1  0.22719800  0.25000000  0.35689500  1
  C  C38  1  0.27280200  0.75000000  0.85689500  1
  C  C39  1  0.30685800  0.25000000  0.93039900  1
  C  C40  1  0.69314200  0.75000000  0.06960100  1
  C  C41  1  0.72719800  0.25000000  0.14310500  1
  C  C42  1  0.77280200  0.75000000  0.64310500  1
  C  C43  1  0.80685800  0.25000000  0.56960100  1
  C  C44  1  0.97908400  0.56668600  0.27375700  1
  C  C45  1  0.97908400  0.93331400  0.27375700  1
  C  C46  1  0.14205100  0.61932100  0.05899300  1
  C  C47  1  0.14205100  0.88067900  0.05899300  1
  C  C48  1  0.17431200  0.11475500  0.13543000  1
  C  C49  1  0.17431200  0.38524500  0.13543000  1
  C  C50  1  0.32568800  0.61475500  0.63543000  1
  C  C51  1  0.32568800  0.88524500  0.63543000  1
  C  C52  1  0.35794900  0.11932100  0.55899300  1
  C  C53  1  0.35794900  0.38067900  0.55899300  1
  C  C54  1  0.52091600  0.06668600  0.77375700  1
  C  C55  1  0.52091600  0.43331400  0.77375700  1
  C  C56  1  0.47908400  0.56668600  0.22624300  1
  C  C57  1  0.47908400  0.93331400  0.22624300  1
  C  C58  1  0.64205100  0.61932100  0.44100700  1
  C  C59  1  0.64205100  0.88067900  0.44100700  1
  C  C60  1  0.67431200  0.11475500  0.36457000  1
  C  C61  1  0.67431200  0.38524500  0.36457000  1
  C  C62  1  0.82568800  0.61475500  0.86457000  1
  C  C63  1  0.82568800  0.88524500  0.86457000  1
  C  C64  1  0.85794900  0.11932100  0.94100700  1
  C  C65  1  0.85794900  0.38067900  0.94100700  1
  C  C66  1  0.02091600  0.06668600  0.72624300  1
  C  C67  1  0.02091600  0.43331400  0.72624300  1
