# generated using pymatgen
data_Cu(NiC4)3
_symmetry_space_group_name_H-M   'P 1'
_cell_length_a   5.10410100
_cell_length_b   7.73938770
_cell_length_c   7.75831115
_cell_angle_alpha   81.85878787
_cell_angle_beta   83.81208316
_cell_angle_gamma   71.00916969
_symmetry_Int_Tables_number   1
_chemical_formula_structural   Cu(NiC4)3
_chemical_formula_sum   'Cu2 Ni6 C24'
_cell_volume   286.24790215
_cell_formula_units_Z   2
loop_
 _symmetry_equiv_pos_site_id
 _symmetry_equiv_pos_as_xyz
  1  'x, y, z'
loop_
 _atom_site_type_symbol
 _atom_site_label
 _atom_site_symmetry_multiplicity
 _atom_site_fract_x
 _atom_site_fract_y
 _atom_site_fract_z
 _atom_site_occupancy
  C  C0  1  0.00000000  0.00000000  0.00000000  1
  C  C1  1  0.00210300  0.74903500  0.75104600  1
  C  C2  1  0.00183000  0.87496400  0.37413500  1
  C  C3  1  0.00163900  0.37560700  0.87068900  1
  C  C4  1  0.00000000  0.50000000  0.50000000  1
  C  C5  1  0.99836100  0.62439300  0.12931100  1
  C  C6  1  0.99817000  0.12503600  0.62586500  1
  C  C7  1  0.99789700  0.25096500  0.24895400  1
  Ni  Ni8  1  0.49998700  0.68529300  0.93824800  1
  Ni  Ni9  1  0.49996900  0.80840500  0.56206100  1
  Ni  Ni10  1  0.49965000  0.93549200  0.18856200  1
  Ni  Ni11  1  0.50035000  0.06450800  0.81143800  1
  Ni  Ni12  1  0.50003100  0.19159500  0.43793900  1
  Ni  Ni13  1  0.50001300  0.31470700  0.06175200  1
  Cu  Cu14  1  0.49992200  0.43823900  0.68599500  1
  Cu  Cu15  1  0.50007800  0.56176100  0.31400500  1
  C  C16  1  0.72736600  0.84820700  0.96947600  1
  C  C17  1  0.27291000  0.90102200  0.78028600  1
  C  C18  1  0.72745800  0.97287300  0.59385800  1
  C  C19  1  0.27583300  0.52494800  0.89975900  1
  C  C20  1  0.72276100  0.59421200  0.71956200  1
  C  C21  1  0.72301000  0.71895200  0.34457800  1
  C  C22  1  0.28138400  0.64318700  0.52864500  1
  C  C23  1  0.72398400  0.22911700  0.84067600  1
  C  C24  1  0.71861600  0.35681300  0.47135500  1
  C  C25  1  0.27601600  0.77088300  0.15932400  1
  C  C26  1  0.27699000  0.28104800  0.65542200  1
  C  C27  1  0.72416700  0.47505200  0.10024100  1
  C  C28  1  0.27723900  0.40578800  0.28043800  1
  C  C29  1  0.72709000  0.09897800  0.21971400  1
  C  C30  1  0.27254200  0.02712700  0.40614200  1
  C  C31  1  0.27263400  0.15179300  0.03052400  1
