# generated using pymatgen
data_Cu11NiC6
_symmetry_space_group_name_H-M   'P 1'
_cell_length_a   5.29603162
_cell_length_b   5.29603162
_cell_length_c   15.65443330
_cell_angle_alpha   86.95473062
_cell_angle_beta   86.95473062
_cell_angle_gamma   88.66173795
_symmetry_Int_Tables_number   1
_chemical_formula_structural   Cu11NiC6
_chemical_formula_sum   'Cu22 Ni2 C12'
_cell_volume   437.74276697
_cell_formula_units_Z   2
loop_
 _symmetry_equiv_pos_site_id
 _symmetry_equiv_pos_as_xyz
  1  'x, y, z'
loop_
 _atom_site_type_symbol
 _atom_site_label
 _atom_site_symmetry_multiplicity
 _atom_site_fract_x
 _atom_site_fract_y
 _atom_site_fract_z
 _atom_site_occupancy
  C  C0  1  0.04704700  0.04704700  0.99398300  1
  C  C1  1  0.00518200  0.50269100  0.83447000  1
  C  C2  1  0.03794100  0.03794100  0.66070100  1
  C  C3  1  0.99502200  0.48610900  0.50229100  1
  C  C4  1  0.01273800  0.01273800  0.33575200  1
  C  C5  1  0.01176300  0.51928600  0.16576800  1
  C  C6  1  0.50269100  0.00518200  0.83447000  1
  C  C7  1  0.47474900  0.47474900  0.99212200  1
  C  C8  1  0.50040200  0.50040200  0.33366500  1
  C  C9  1  0.48610900  0.99502200  0.50229100  1
  C  C10  1  0.46736500  0.46736500  0.66109900  1
  C  C11  1  0.51928600  0.01176300  0.16576800  1
  Ni  Ni12  1  0.25256600  0.25256600  0.92002500  1
  Ni  Ni13  1  0.24234500  0.24234500  0.58536200  1
  Cu  Cu14  1  0.21123300  0.21123300  0.75251800  1
  Cu  Cu15  1  0.18146600  0.76342000  0.92230900  1
  Cu  Cu16  1  0.23344500  0.23344500  0.41347200  1
  Cu  Cu17  1  0.18178900  0.75091200  0.59223100  1
  Cu  Cu18  1  0.21542200  0.21542200  0.08855700  1
  Cu  Cu19  1  0.22418800  0.77974900  0.25121900  1
  Cu  Cu20  1  0.32231100  0.71190200  0.75849100  1
  Cu  Cu21  1  0.27191000  0.72867200  0.42388800  1
  Cu  Cu22  1  0.32764100  0.72098300  0.08693100  1
  Cu  Cu23  1  0.28364200  0.28364200  0.24667400  1
  Cu  Cu24  1  0.72098300  0.32764100  0.08693100  1
  Cu  Cu25  1  0.72867200  0.27191000  0.42388800  1
  Cu  Cu26  1  0.71190200  0.32231100  0.75849100  1
  Cu  Cu27  1  0.68773000  0.68773000  0.90104000  1
  Cu  Cu28  1  0.68577900  0.68577900  0.57225800  1
  Cu  Cu29  1  0.72046800  0.72046800  0.23898000  1
  Cu  Cu30  1  0.75091200  0.18178900  0.59223100  1
  Cu  Cu31  1  0.76342000  0.18146600  0.92230900  1
  Cu  Cu32  1  0.77974900  0.22418800  0.25121900  1
  Cu  Cu33  1  0.76961100  0.76961100  0.40983700  1
  Cu  Cu34  1  0.83797900  0.83797900  0.07530600  1
  Cu  Cu35  1  0.83454400  0.83454400  0.74344900  1
