# generated using pymatgen
data_CuNiC2
_symmetry_space_group_name_H-M   'P 1'
_cell_length_a   2.95617000
_cell_length_b   2.95617000
_cell_length_c   16.66515500
_cell_angle_alpha   90.00000000
_cell_angle_beta   90.00000000
_cell_angle_gamma   90.00000000
_symmetry_Int_Tables_number   1
_chemical_formula_structural   CuNiC2
_chemical_formula_sum   'Cu4 Ni4 C8'
_cell_volume   145.63580745
_cell_formula_units_Z   4
loop_
 _symmetry_equiv_pos_site_id
 _symmetry_equiv_pos_as_xyz
  1  'x, y, z'
loop_
 _atom_site_type_symbol
 _atom_site_label
 _atom_site_symmetry_multiplicity
 _atom_site_fract_x
 _atom_site_fract_y
 _atom_site_fract_z
 _atom_site_occupancy
  C  C0  1  0.00000000  0.50000000  0.31546800  1
  C  C1  1  0.50000000  0.00000000  0.43988600  1
  C  C2  1  0.00000000  0.50000000  0.56011400  1
  C  C3  1  0.50000000  0.00000000  0.68453200  1
  C  C4  1  0.00000000  0.50000000  0.81048800  1
  C  C5  1  0.50000000  0.00000000  0.93553100  1
  C  C6  1  0.00000000  0.50000000  0.06446900  1
  C  C7  1  0.50000000  0.00000000  0.18951200  1
  Ni  Ni8  1  0.50000000  0.00000000  0.80862400  1
  Ni  Ni9  1  0.00000000  0.50000000  0.93641300  1
  Ni  Ni10  1  0.50000000  0.00000000  0.06358700  1
  Ni  Ni11  1  0.00000000  0.50000000  0.19137600  1
  Cu  Cu12  1  0.50000000  0.00000000  0.31914400  1
  Cu  Cu13  1  0.00000000  0.50000000  0.43901000  1
  Cu  Cu14  1  0.50000000  0.00000000  0.56099000  1
  Cu  Cu15  1  0.00000000  0.50000000  0.68085600  1
