# generated using pymatgen
data_CuNiC5
_symmetry_space_group_name_H-M   'P 1'
_cell_length_a   5.57737100
_cell_length_b   14.04660400
_cell_length_c   14.07553825
_cell_angle_alpha   59.61453769
_cell_angle_beta   90.00000000
_cell_angle_gamma   90.00000000
_symmetry_Int_Tables_number   1
_chemical_formula_structural   CuNiC5
_chemical_formula_sum   'Cu8 Ni8 C40'
_cell_volume   951.25401468
_cell_formula_units_Z   8
loop_
 _symmetry_equiv_pos_site_id
 _symmetry_equiv_pos_as_xyz
  1  'x, y, z'
loop_
 _atom_site_type_symbol
 _atom_site_label
 _atom_site_symmetry_multiplicity
 _atom_site_fract_x
 _atom_site_fract_y
 _atom_site_fract_z
 _atom_site_occupancy
  Ni  Ni0  1  0.74188000  0.94094300  0.85730200  1
  Ni  Ni1  1  0.75812000  0.94094300  0.35730200  1
  Ni  Ni2  1  0.24681400  0.55926300  0.79893400  1
  Ni  Ni3  1  0.74681400  0.44073700  0.70106600  1
  Ni  Ni4  1  0.25318600  0.55926300  0.29893400  1
  Ni  Ni5  1  0.75318600  0.44073700  0.20106600  1
  Ni  Ni6  1  0.24188000  0.05905700  0.64269800  1
  Ni  Ni7  1  0.25812000  0.05905700  0.14269800  1
  Cu  Cu8  1  0.26646100  0.84603100  0.56239100  1
  Cu  Cu9  1  0.75970900  0.65416100  0.90744300  1
  Cu  Cu10  1  0.23353900  0.84603100  0.06239100  1
  Cu  Cu11  1  0.74029100  0.65416100  0.40744300  1
  Cu  Cu12  1  0.25970900  0.34583900  0.59255700  1
  Cu  Cu13  1  0.76646100  0.15396900  0.93760900  1
  Cu  Cu14  1  0.24029100  0.34583900  0.09255700  1
  Cu  Cu15  1  0.73353900  0.15396900  0.43760900  1
  C  C16  1  0.03260900  0.99145900  0.76735400  1
  C  C17  1  0.45545600  0.88439200  0.96456600  1
  C  C18  1  0.24160400  0.92518400  0.62568700  1
  C  C19  1  0.74571100  0.79526000  0.86775200  1
  C  C20  1  0.46739100  0.99145900  0.26735400  1
  C  C21  1  0.04454400  0.88439200  0.46456600  1
  C  C22  1  0.54186700  0.86704000  0.50114600  1
  C  C23  1  0.03714900  0.62439000  0.87439400  1
  C  C24  1  0.54032900  0.62550900  0.84088400  1
  C  C25  1  0.23041200  0.70508800  0.66298400  1
  C  C26  1  0.25839600  0.92518400  0.12568700  1
  C  C27  1  0.75428900  0.79526000  0.36775200  1
  C  C28  1  0.28374500  0.42608900  0.95023500  1
  C  C29  1  0.97448100  0.50144500  0.76224700  1
  C  C30  1  0.47448100  0.49855500  0.73775300  1
  C  C31  1  0.95813300  0.86704000  0.00114600  1
  C  C32  1  0.78374500  0.57391100  0.54976500  1
  C  C33  1  0.46285100  0.62439000  0.37439400  1
  C  C34  1  0.95967100  0.62550900  0.34088400  1
  C  C35  1  0.26958800  0.70508800  0.16298400  1
  C  C36  1  0.73041200  0.29491200  0.83701600  1
  C  C37  1  0.04032900  0.37449100  0.65911600  1
  C  C38  1  0.53714900  0.37561000  0.62560600  1
  C  C39  1  0.21625500  0.42608900  0.45023500  1
  C  C40  1  0.04186700  0.13296000  0.99885400  1
  C  C41  1  0.52551900  0.50144500  0.26224700  1
  C  C42  1  0.02551900  0.49855500  0.23775300  1
  C  C43  1  0.71625500  0.57391100  0.04976500  1
  C  C44  1  0.24571100  0.20474000  0.63224800  1
  C  C45  1  0.74160400  0.07481600  0.87431300  1
  C  C46  1  0.76958800  0.29491200  0.33701600  1
  C  C47  1  0.45967100  0.37449100  0.15911600  1
  C  C48  1  0.96285100  0.37561000  0.12560600  1
  C  C49  1  0.45813300  0.13296000  0.49885400  1
  C  C50  1  0.95545600  0.11560800  0.53543400  1
  C  C51  1  0.53260900  0.00854100  0.73264600  1
  C  C52  1  0.25428900  0.20474000  0.13224800  1
  C  C53  1  0.75839600  0.07481600  0.37431300  1
  C  C54  1  0.54454400  0.11560800  0.03543400  1
  C  C55  1  0.96739100  0.00854100  0.23264600  1
