# generated using pymatgen
data_CuNiC11
_symmetry_space_group_name_H-M   'P 1'
_cell_length_a   6.82335400
_cell_length_b   8.85903172
_cell_length_c   10.22184634
_cell_angle_alpha   91.04088321
_cell_angle_beta   90.01372160
_cell_angle_gamma   90.33642830
_symmetry_Int_Tables_number   1
_chemical_formula_structural   CuNiC11
_chemical_formula_sum   'Cu4 Ni4 C44'
_cell_volume   617.78068456
_cell_formula_units_Z   4
loop_
 _symmetry_equiv_pos_site_id
 _symmetry_equiv_pos_as_xyz
  1  'x, y, z'
loop_
 _atom_site_type_symbol
 _atom_site_label
 _atom_site_symmetry_multiplicity
 _atom_site_fract_x
 _atom_site_fract_y
 _atom_site_fract_z
 _atom_site_occupancy
  C  C0  1  0.25075200  0.91616100  0.37839400  1
  C  C1  1  0.00027200  0.74429900  0.62600900  1
  C  C2  1  0.49933700  0.74395900  0.62592100  1
  C  C3  1  0.00039200  0.74185600  0.12373300  1
  C  C4  1  0.50016000  0.74182600  0.12299100  1
  C  C5  1  0.50064600  0.25451600  0.87446000  1
  C  C6  1  0.50213100  0.25688600  0.37636300  1
  C  C7  1  0.99864000  0.25584100  0.37560600  1
  C  C8  1  0.24096100  0.91944100  0.87533700  1
  C  C9  1  0.97947000  0.26766600  0.88248400  1
  C  C10  1  0.75813500  0.09031700  0.62814400  1
  C  C11  1  0.75419500  0.09220600  0.12242500  1
  C  C12  1  0.74981600  0.64123200  0.88591800  1
  C  C13  1  0.75056100  0.63634700  0.38921800  1
  C  C14  1  0.24771200  0.35696500  0.61477800  1
  C  C15  1  0.24635300  0.35582300  0.10785600  1
  Ni  Ni16  1  0.24561000  0.59328100  0.85161600  1
  Ni  Ni17  1  0.25036200  0.58825000  0.35329800  1
  Ni  Ni18  1  0.75357800  0.40225900  0.64979400  1
  Ni  Ni19  1  0.74895600  0.40371900  0.14298500  1
  Cu  Cu20  1  0.75903700  0.95507800  0.86758200  1
  Cu  Cu21  1  0.75031300  0.94755900  0.36516100  1
  Cu  Cu22  1  0.24818200  0.05833500  0.64102300  1
  Cu  Cu23  1  0.24937500  0.05126100  0.12795500  1
  C  C24  1  0.25098100  0.91409600  0.66106200  1
  C  C25  1  0.25149000  0.90830400  0.14928100  1
  C  C26  1  0.75187400  0.91397000  0.98865500  1
  C  C27  1  0.75145900  0.91057100  0.48782400  1
  C  C28  1  0.74877600  0.85376000  0.77327500  1
  C  C29  1  0.75132500  0.84306100  0.27369100  1
  C  C30  1  0.06823700  0.69424400  0.89189500  1
  C  C31  1  0.43274200  0.68197400  0.89508000  1
  C  C32  1  0.06757700  0.68124100  0.39583800  1
  C  C33  1  0.43425200  0.68211500  0.39505600  1
  C  C34  1  0.24796200  0.57348100  0.69959100  1
  C  C35  1  0.74918200  0.56263000  0.59000500  1
  C  C36  1  0.24913700  0.56882100  0.20098000  1
  C  C37  1  0.75034800  0.56381800  0.08329000  1
  C  C38  1  0.23300100  0.43214300  0.91017400  1
  C  C39  1  0.76736500  0.42277800  0.80219500  1
  C  C40  1  0.25124200  0.42887200  0.41363900  1
  C  C41  1  0.75430600  0.42463100  0.29490400  1
  C  C42  1  0.56802700  0.30730700  0.61407400  1
  C  C43  1  0.93016200  0.30666900  0.60159500  1
  C  C44  1  0.56484100  0.30913100  0.10370800  1
  C  C45  1  0.92721800  0.30650800  0.09687500  1
  C  C46  1  0.24353500  0.15104900  0.74090100  1
  C  C47  1  0.24611800  0.14691100  0.22705500  1
  C  C48  1  0.24988100  0.11180400  0.52361700  1
  C  C49  1  0.25001400  0.10095400  0.00926500  1
  C  C50  1  0.77567200  0.09640500  0.83670800  1
  C  C51  1  0.74833300  0.08766600  0.33071900  1
