# generated using pymatgen
data_Cu2Ni4C5
_symmetry_space_group_name_H-M   'P 1'
_cell_length_a   8.95202600
_cell_length_b   5.13998000
_cell_length_c   7.37529012
_cell_angle_alpha   88.49295601
_cell_angle_beta   90.00000000
_cell_angle_gamma   90.00000000
_symmetry_Int_Tables_number   1
_chemical_formula_structural   Cu2Ni4C5
_chemical_formula_sum   'Cu6 Ni12 C15'
_cell_volume   339.24356925
_cell_formula_units_Z   3
loop_
 _symmetry_equiv_pos_site_id
 _symmetry_equiv_pos_as_xyz
  1  'x, y, z'
loop_
 _atom_site_type_symbol
 _atom_site_label
 _atom_site_symmetry_multiplicity
 _atom_site_fract_x
 _atom_site_fract_y
 _atom_site_fract_z
 _atom_site_occupancy
  C  C0  1  0.16617500  0.68266500  0.36917000  1
  C  C1  1  0.16666600  0.31098600  0.62486300  1
  C  C2  1  0.00000000  0.13752700  0.36136800  1
  C  C3  1  0.83382500  0.68266500  0.36917000  1
  C  C4  1  0.83333400  0.31098600  0.62486300  1
  C  C5  1  0.67778800  0.85099200  0.64549500  1
  C  C6  1  0.50000000  0.71128200  0.36512800  1
  C  C7  1  0.50000000  0.31694600  0.59933300  1
  C  C8  1  0.32221200  0.85099200  0.64549500  1
  C  C9  1  0.16646300  0.00377800  0.00163300  1
  C  C10  1  0.00000000  0.50792900  0.99074900  1
  C  C11  1  0.83353700  0.00377800  0.00163300  1
  C  C12  1  0.66710900  0.49502800  0.00327500  1
  C  C13  1  0.50000000  0.99769600  0.00915400  1
  C  C14  1  0.33289100  0.49502800  0.00327500  1
  Ni  Ni15  1  0.17160900  0.68764100  0.86160900  1
  Ni  Ni16  1  0.16088100  0.31782600  0.13681900  1
  Ni  Ni17  1  0.00000000  0.16709500  0.85436000  1
  Ni  Ni18  1  0.00000000  0.84121100  0.14916000  1
  Ni  Ni19  1  0.82839100  0.68764100  0.86160900  1
  Ni  Ni20  1  0.83911900  0.31782600  0.13681900  1
  Ni  Ni21  1  0.66798000  0.15614800  0.85463200  1
  Ni  Ni22  1  0.66738700  0.83038800  0.14812200  1
  Ni  Ni23  1  0.50000000  0.68218900  0.86589900  1
  Ni  Ni24  1  0.50000000  0.31211200  0.13630200  1
  Ni  Ni25  1  0.33202000  0.15614800  0.85463200  1
  Ni  Ni26  1  0.33261300  0.83038800  0.14812200  1
  Cu  Cu27  1  0.16624700  0.99744000  0.49800400  1
  Cu  Cu28  1  0.00000000  0.47184900  0.48239700  1
  Cu  Cu29  1  0.83375300  0.99744000  0.49800400  1
  Cu  Cu30  1  0.66842000  0.52223700  0.51291900  1
  Cu  Cu31  1  0.50000000  0.97724000  0.53235300  1
  Cu  Cu32  1  0.33158000  0.52223700  0.51291900  1
