# generated using pymatgen
data_Cu2NiC33
_symmetry_space_group_name_H-M   'P 1'
_cell_length_a   8.45176160
_cell_length_b   8.45176160
_cell_length_c   8.45176172
_cell_angle_alpha   61.67852346
_cell_angle_beta   61.67852346
_cell_angle_gamma   61.67852491
_symmetry_Int_Tables_number   1
_chemical_formula_structural   Cu2NiC33
_chemical_formula_sum   'Cu2 Ni1 C33'
_cell_volume   442.96532249
_cell_formula_units_Z   1
loop_
 _symmetry_equiv_pos_site_id
 _symmetry_equiv_pos_as_xyz
  1  'x, y, z'
loop_
 _atom_site_type_symbol
 _atom_site_label
 _atom_site_symmetry_multiplicity
 _atom_site_fract_x
 _atom_site_fract_y
 _atom_site_fract_z
 _atom_site_occupancy
  Ni  Ni0  1  0.14609600  0.14609600  0.14609600  1
  Cu  Cu1  1  0.00087100  0.00087100  0.00087100  1
  Cu  Cu2  1  0.50086900  0.50086900  0.50086900  1
  C  C3  1  0.64662400  0.64662400  0.64662400  1
  C  C4  1  0.85401600  0.85401600  0.85401600  1
  C  C5  1  0.35346500  0.35346500  0.35346500  1
  C  C6  1  0.54758200  0.95152800  0.25088100  1
  C  C7  1  0.25088100  0.54758200  0.95152800  1
  C  C8  1  0.95152800  0.25088100  0.54758200  1
  C  C9  1  0.04696800  0.74991100  0.45318800  1
  C  C10  1  0.74991100  0.45318800  0.04696800  1
  C  C11  1  0.45318800  0.04696800  0.74991100  1
  C  C12  1  0.32554800  0.50131700  0.10625600  1
  C  C13  1  0.10625600  0.32554800  0.50131700  1
  C  C14  1  0.50131700  0.10625600  0.32554800  1
  C  C15  1  0.75124300  0.93865600  0.09614000  1
  C  C16  1  0.39742200  0.98688900  0.17829700  1
  C  C17  1  0.56555900  0.74832300  0.40608400  1
  C  C18  1  0.09614000  0.75124300  0.93865500  1
  C  C19  1  0.40608400  0.56555900  0.74832300  1
  C  C20  1  0.00405300  0.82468500  0.60639200  1
  C  C21  1  0.74832300  0.40608400  0.56555900  1
  C  C22  1  0.05753100  0.90325400  0.24931900  1
  C  C23  1  0.82468500  0.60639200  0.00405300  1
  C  C24  1  0.17829700  0.39742200  0.98688900  1
  C  C25  1  0.93865600  0.09614000  0.75124300  1
  C  C26  1  0.25064400  0.59707100  0.43616800  1
  C  C27  1  0.98688900  0.17829700  0.39742200  1
  C  C28  1  0.59707100  0.43616800  0.25064400  1
  C  C29  1  0.90325400  0.24931900  0.05753100  1
  C  C30  1  0.43616800  0.25064400  0.59707100  1
  C  C31  1  0.60639200  0.00405300  0.82468500  1
  C  C32  1  0.24931900  0.05753100  0.90325400  1
  C  C33  1  0.49849800  0.89249400  0.67615900  1
  C  C34  1  0.89249400  0.67615900  0.49849800  1
  C  C35  1  0.67615900  0.49849800  0.89249400  1
