# generated using pymatgen
data_Cu3Ni8C7
_symmetry_space_group_name_H-M   'P 1'
_cell_length_a   6.43040300
_cell_length_b   6.43354026
_cell_length_c   16.95396373
_cell_angle_alpha   100.67400247
_cell_angle_beta   100.59288128
_cell_angle_gamma   90.04798442
_symmetry_Int_Tables_number   1
_chemical_formula_structural   Cu3Ni8C7
_chemical_formula_sum   'Cu9 Ni24 C21'
_cell_volume   677.06550560
_cell_formula_units_Z   3
loop_
 _symmetry_equiv_pos_site_id
 _symmetry_equiv_pos_as_xyz
  1  'x, y, z'
loop_
 _atom_site_type_symbol
 _atom_site_label
 _atom_site_symmetry_multiplicity
 _atom_site_fract_x
 _atom_site_fract_y
 _atom_site_fract_z
 _atom_site_occupancy
  C  C0  1  0.89765400  0.56478800  0.66611600  1
  C  C1  1  0.84933200  0.10371500  0.66686600  1
  C  C2  1  0.30665300  0.83643900  0.66574100  1
  C  C3  1  0.95407700  0.95423900  0.32981800  1
  C  C4  1  0.30315400  0.44143800  0.33325800  1
  C  C5  1  0.44062200  0.98552400  0.33371100  1
  C  C6  1  0.28360800  0.31970800  0.99916200  1
  C  C7  1  0.79739000  0.42048300  0.00182100  1
  C  C8  1  0.54663700  0.83607800  0.00478600  1
  C  C9  1  0.40484300  0.39566800  0.78718200  1
  C  C10  1  0.74414000  0.72510600  0.45296300  1
  C  C11  1  0.95979300  0.93690000  0.88159700  1
  C  C12  1  0.07556900  0.06096400  0.12243200  1
  C  C13  1  0.28301200  0.27439700  0.54417500  1
  C  C14  1  0.61525700  0.60480700  0.21127700  1
  C  C15  1  0.43235800  0.92167800  0.83777100  1
  C  C16  1  0.75743200  0.25155200  0.49803200  1
  C  C17  1  0.92673800  0.41853700  0.83401300  1
  C  C18  1  0.09261200  0.59038300  0.16744400  1
  C  C19  1  0.25528900  0.75275100  0.49328300  1
  C  C20  1  0.59322200  0.09406500  0.16950700  1
  Ni  Ni21  1  0.27995200  0.95020200  0.90003100  1
  Ni  Ni22  1  0.39819800  0.70290600  0.77999500  1
  Ni  Ni23  1  0.39361900  0.08201700  0.77952800  1
  Ni  Ni24  1  0.65449400  0.94955600  0.89169400  1
  Ni  Ni25  1  0.60075100  0.26412500  0.55835600  1
  Ni  Ni26  1  0.71021700  0.38014700  0.77430500  1
  Ni  Ni27  1  0.74413000  0.03305300  0.43983400  1
  Ni  Ni28  1  0.71309400  0.41368200  0.44143200  1
  Ni  Ni29  1  0.96471900  0.25635000  0.89215300  1
  Ni  Ni30  1  0.94806100  0.63380500  0.89277800  1
  Ni  Ni31  1  0.97529000  0.28949500  0.55679800  1
  Ni  Ni32  1  0.08533700  0.39346700  0.77442200  1
  Ni  Ni33  1  0.93105900  0.60176900  0.22521000  1
  Ni  Ni34  1  0.04211800  0.71620700  0.43227900  1
  Ni  Ni35  1  0.08467700  0.37039000  0.11033400  1
  Ni  Ni36  1  0.04592100  0.74694100  0.10822500  1
  Ni  Ni37  1  0.28585100  0.58898600  0.55039100  1
  Ni  Ni38  1  0.26977600  0.96904400  0.55204400  1
  Ni  Ni39  1  0.31039200  0.63562700  0.22579800  1
  Ni  Ni40  1  0.42536800  0.73725000  0.43905000  1
  Ni  Ni41  1  0.38038400  0.04615100  0.10749600  1
  Ni  Ni42  1  0.63419400  0.92601800  0.22519300  1
  Ni  Ni43  1  0.59268800  0.30775700  0.22792800  1
  Ni  Ni44  1  0.76117800  0.08513900  0.11462400  1
  Cu  Cu45  1  0.32970500  0.33834000  0.66562900  1
  Cu  Cu46  1  0.47136000  0.45272900  0.90746300  1
  Cu  Cu47  1  0.66592200  0.68064300  0.33207500  1
  Cu  Cu48  1  0.82018900  0.78566900  0.57197700  1
  Cu  Cu49  1  0.92610300  0.87933000  0.76217900  1
  Cu  Cu50  1  0.00347400  0.01647600  0.00206500  1
  Cu  Cu51  1  0.14853900  0.10838800  0.24218900  1
  Cu  Cu52  1  0.24039400  0.20798500  0.42406800  1
  Cu  Cu53  1  0.56186000  0.54733600  0.09150100  1
