# generated using pymatgen
data_Cu4(NiC)5
_symmetry_space_group_name_H-M   'P 1'
_cell_length_a   14.03131300
_cell_length_b   8.62054900
_cell_length_c   10.96273583
_cell_angle_alpha   87.73170896
_cell_angle_beta   90.00000000
_cell_angle_gamma   90.00000000
_symmetry_Int_Tables_number   1
_chemical_formula_structural   Cu4(NiC)5
_chemical_formula_sum   'Cu16 Ni20 C20'
_cell_volume   1324.98744299
_cell_formula_units_Z   4
loop_
 _symmetry_equiv_pos_site_id
 _symmetry_equiv_pos_as_xyz
  1  'x, y, z'
loop_
 _atom_site_type_symbol
 _atom_site_label
 _atom_site_symmetry_multiplicity
 _atom_site_fract_x
 _atom_site_fract_y
 _atom_site_fract_z
 _atom_site_occupancy
  C  C0  1  0.24884200  0.91209800  0.67525400  1
  C  C1  1  0.25115800  0.41209800  0.17525400  1
  C  C2  1  0.75115800  0.08790200  0.32474600  1
  C  C3  1  0.74884200  0.58790200  0.82474600  1
  C  C4  1  0.00714300  0.91075100  0.67656900  1
  C  C5  1  0.49285700  0.41075100  0.17656900  1
  C  C6  1  0.99285700  0.08924900  0.32343100  1
  C  C7  1  0.50714300  0.58924900  0.82343100  1
  C  C8  1  0.12624800  0.24223400  0.75974300  1
  C  C9  1  0.37375200  0.74223400  0.25974300  1
  C  C10  1  0.87375200  0.75776600  0.24025700  1
  C  C11  1  0.62624800  0.25776600  0.74025700  1
  C  C12  1  0.12944000  0.90376200  0.94307400  1
  C  C13  1  0.37056000  0.40376200  0.44307400  1
  C  C14  1  0.87056000  0.09623800  0.05692600  1
  C  C15  1  0.62944000  0.59623800  0.55692600  1
  Ni  Ni16  1  0.36707200  0.81663900  0.59223800  1
  Ni  Ni17  1  0.13292800  0.31663900  0.09223800  1
  Ni  Ni18  1  0.63292800  0.18336100  0.40776200  1
  Ni  Ni19  1  0.86707200  0.68336100  0.90776200  1
  Ni  Ni20  1  0.88810300  0.82431800  0.58774500  1
  Ni  Ni21  1  0.61189700  0.32431800  0.08774500  1
  Ni  Ni22  1  0.11189700  0.17568200  0.41225500  1
  Ni  Ni23  1  0.38810300  0.67568200  0.91225500  1
  Ni  Ni24  1  0.12476000  0.48266500  0.76283700  1
  Ni  Ni25  1  0.37524000  0.98266500  0.26283700  1
  Ni  Ni26  1  0.87524000  0.51733500  0.23716300  1
  Ni  Ni27  1  0.62476000  0.01733500  0.73716300  1
  Ni  Ni28  1  0.12985600  0.81700800  0.12295600  1
  Ni  Ni29  1  0.37014400  0.31700800  0.62295600  1
  Ni  Ni30  1  0.87014400  0.18299200  0.87704400  1
  Ni  Ni31  1  0.62985600  0.68299200  0.37704400  1
  Ni  Ni32  1  0.12810200  0.99969100  0.76252400  1
  Ni  Ni33  1  0.37189800  0.49969100  0.26252400  1
  Ni  Ni34  1  0.87189800  0.00030900  0.23747600  1
  Ni  Ni35  1  0.62810200  0.50030900  0.73747600  1
  Cu  Cu36  1  0.43106700  0.75117400  0.54842500  1
  Cu  Cu37  1  0.06893300  0.25117400  0.04842500  1
  Cu  Cu38  1  0.56893300  0.24882600  0.45157500  1
  Cu  Cu39  1  0.93106700  0.74882600  0.95157500  1
  Cu  Cu40  1  0.82926600  0.75785000  0.53501300  1
  Cu  Cu41  1  0.67073400  0.25785000  0.03501300  1
  Cu  Cu42  1  0.17073400  0.24215000  0.46498700  1
  Cu  Cu43  1  0.32926600  0.74215000  0.96498700  1
  Cu  Cu44  1  0.12415700  0.61840500  0.75933200  1
  Cu  Cu45  1  0.37584300  0.11840500  0.25933200  1
  Cu  Cu46  1  0.87584300  0.38159500  0.24066800  1
  Cu  Cu47  1  0.62415700  0.88159500  0.74066800  1
  Cu  Cu48  1  0.13175600  0.76784700  0.22414500  1
  Cu  Cu49  1  0.36824400  0.26784700  0.72414500  1
  Cu  Cu50  1  0.86824400  0.23215300  0.77585500  1
  Cu  Cu51  1  0.63175600  0.73215300  0.27585500  1
  C  C52  1  0.12049500  0.74165600  0.47712500  1
  C  C53  1  0.37950500  0.24165600  0.97712500  1
  C  C54  1  0.87950500  0.25834400  0.52287500  1
  C  C55  1  0.62049500  0.75834400  0.02287500  1
