# generated using pymatgen
data_Cu(NiC2)2
_symmetry_space_group_name_H-M   'P 1'
_cell_length_a   6.02532167
_cell_length_b   6.02532167
_cell_length_c   24.88134301
_cell_angle_alpha   82.26868642
_cell_angle_beta   82.26868642
_cell_angle_gamma   59.72612555
_symmetry_Int_Tables_number   1
_chemical_formula_structural   Cu(NiC2)2
_chemical_formula_sum   'Cu10 Ni20 C40'
_cell_volume   770.67351169
_cell_formula_units_Z   10
loop_
 _symmetry_equiv_pos_site_id
 _symmetry_equiv_pos_as_xyz
  1  'x, y, z'
loop_
 _atom_site_type_symbol
 _atom_site_label
 _atom_site_symmetry_multiplicity
 _atom_site_fract_x
 _atom_site_fract_y
 _atom_site_fract_z
 _atom_site_occupancy
  Ni  Ni0  1  0.00447700  0.00447700  0.99973200  1
  Ni  Ni1  1  0.40451000  0.40451000  0.79952500  1
  Ni  Ni2  1  0.37685800  0.87364000  0.87518400  1
  Ni  Ni3  1  0.87364000  0.37685800  0.87518400  1
  Ni  Ni4  1  0.80458000  0.80458000  0.59939500  1
  Ni  Ni5  1  0.67487500  0.67487500  0.97478700  1
  Ni  Ni6  1  0.77704100  0.27367600  0.67516300  1
  Ni  Ni7  1  0.07513400  0.07513400  0.77463600  1
  Ni  Ni8  1  0.27367600  0.77704100  0.67516300  1
  Ni  Ni9  1  0.20395000  0.20395000  0.40031700  1
  Ni  Ni10  1  0.17731800  0.67352300  0.47514200  1
  Ni  Ni11  1  0.67352300  0.17731800  0.47514200  1
  Ni  Ni12  1  0.47527600  0.47527600  0.57451200  1
  Ni  Ni13  1  0.57701200  0.07372900  0.27416000  1
  Ni  Ni14  1  0.87821600  0.87821600  0.37428500  1
  Ni  Ni15  1  0.07372900  0.57701200  0.27416000  1
  Ni  Ni16  1  0.07431400  0.07431400  0.27434400  1
  Ni  Ni17  1  0.97490900  0.47504700  0.07596100  1
  Ni  Ni18  1  0.27268900  0.27268900  0.17472000  1
  Ni  Ni19  1  0.47504700  0.97490900  0.07596100  1
  Cu  Cu20  1  0.34731600  0.34731600  0.95096400  1
  Cu  Cu21  1  0.74748300  0.74748300  0.75029700  1
  Cu  Cu22  1  0.87405600  0.87405600  0.87520300  1
  Cu  Cu23  1  0.14730300  0.14730300  0.55038700  1
  Cu  Cu24  1  0.27434800  0.27434800  0.67512200  1
  Cu  Cu25  1  0.55107300  0.55107300  0.35024900  1
  Cu  Cu26  1  0.59904900  0.59904900  0.19890400  1
  Cu  Cu27  1  0.67482700  0.67482700  0.47488500  1
  Cu  Cu28  1  0.94801500  0.94801500  0.14970900  1
  Cu  Cu29  1  0.47417800  0.47417800  0.07612100  1
  C  C30  1  0.53356300  0.53356300  0.92345100  1
  C  C31  1  0.53248900  0.98874300  0.92392300  1
  C  C32  1  0.71428900  0.71428900  0.83261400  1
  C  C33  1  0.98874300  0.53248900  0.92392300  1
  C  C34  1  0.93395100  0.93395100  0.72334700  1
  C  C35  1  0.76401900  0.21590700  0.82638200  1
  C  C36  1  0.03569000  0.03569000  0.91687200  1
  C  C37  1  0.21590700  0.76401900  0.82638200  1
  C  C38  1  0.11472200  0.11472200  0.63268900  1
  C  C39  1  0.93274000  0.38835700  0.72371000  1
  C  C40  1  0.38835700  0.93274000  0.72371000  1
  C  C41  1  0.21326000  0.21326000  0.82687600  1
  C  C42  1  0.33370600  0.33370600  0.52309200  1
  C  C43  1  0.16343900  0.61547900  0.62646400  1
  C  C44  1  0.61547900  0.16343900  0.62646400  1
  C  C45  1  0.51593600  0.51593600  0.43241000  1
  C  C46  1  0.43510700  0.43510700  0.71677600  1
  C  C47  1  0.33212900  0.78839700  0.52379900  1
  C  C48  1  0.78839700  0.33212900  0.52379900  1
  C  C49  1  0.61331100  0.61331100  0.62704900  1
  C  C50  1  0.73992400  0.73992400  0.32058100  1
  C  C51  1  0.56472600  0.01762500  0.42550300  1
  C  C52  1  0.83382200  0.83382200  0.51661400  1
  C  C53  1  0.01762500  0.56472600  0.42550300  1
  C  C54  1  0.92189300  0.92189300  0.23114200  1
  C  C55  1  0.74786200  0.19306000  0.32296800  1
  C  C56  1  0.19306000  0.74786200  0.32296800  1
  C  C57  1  0.01397000  0.01397000  0.42816100  1
  C  C58  1  0.13504400  0.13504400  0.12235200  1
  C  C59  1  0.95524400  0.40243800  0.22652100  1
  C  C60  1  0.22887200  0.22887200  0.31728200  1
  C  C61  1  0.13050100  0.58926300  0.12447100  1
  C  C62  1  0.40243800  0.95524400  0.22652100  1
  C  C63  1  0.31599100  0.31599100  0.03324400  1
  C  C64  1  0.58926300  0.13050100  0.12447100  1
  C  C65  1  0.40951600  0.40951600  0.22826900  1
  C  C66  1  0.36464200  0.81581200  0.02691600  1
  C  C67  1  0.63373400  0.63373400  0.11831700  1
  C  C68  1  0.81581200  0.36464200  0.02691600  1
  C  C69  1  0.81240300  0.81240300  0.02823600  1
