# generated using pymatgen
data_Cu3Ni3C19
_symmetry_space_group_name_H-M   'P 1'
_cell_length_a   9.62996822
_cell_length_b   9.62996822
_cell_length_c   9.62996812
_cell_angle_alpha   113.86089646
_cell_angle_beta   113.86089646
_cell_angle_gamma   113.86089217
_symmetry_Int_Tables_number   1
_chemical_formula_structural   Cu3Ni3C19
_chemical_formula_sum   'Cu6 Ni6 C38'
_cell_volume   548.12371345
_cell_formula_units_Z   2
loop_
 _symmetry_equiv_pos_site_id
 _symmetry_equiv_pos_as_xyz
  1  'x, y, z'
loop_
 _atom_site_type_symbol
 _atom_site_label
 _atom_site_symmetry_multiplicity
 _atom_site_fract_x
 _atom_site_fract_y
 _atom_site_fract_z
 _atom_site_occupancy
  C  C0  1  0.76842800  0.76842800  0.76842800  1
  C  C1  1  0.28102500  0.09029300  0.09029300  1
  C  C2  1  0.09029300  0.28102500  0.09029300  1
  C  C3  1  0.09029300  0.09029300  0.28102500  1
  Ni  Ni4  1  0.88193900  0.10687900  0.44405300  1
  Ni  Ni5  1  0.44405300  0.88193900  0.10687900  1
  Ni  Ni6  1  0.10687900  0.44405300  0.88193900  1
  Ni  Ni7  1  0.44405300  0.10687900  0.88193900  1
  Ni  Ni8  1  0.88193900  0.44405300  0.10687900  1
  Ni  Ni9  1  0.10687900  0.88193900  0.44405300  1
  Cu  Cu10  1  0.72176000  0.52800800  0.33904500  1
  Cu  Cu11  1  0.33904500  0.72176000  0.52800800  1
  Cu  Cu12  1  0.52800800  0.33904500  0.72176000  1
  Cu  Cu13  1  0.33904500  0.52800800  0.72176000  1
  Cu  Cu14  1  0.72176000  0.33904500  0.52800800  1
  Cu  Cu15  1  0.52800800  0.72176000  0.33904500  1
  C  C16  1  0.09575500  0.09575500  0.76611700  1
  C  C17  1  0.76611700  0.09575500  0.09575500  1
  C  C18  1  0.09575500  0.76611700  0.09575500  1
  C  C19  1  0.29375800  0.29375800  0.29375800  1
  C  C20  1  0.06681800  0.06681800  0.88292900  1
  C  C21  1  0.88292900  0.06681800  0.06681800  1
  C  C22  1  0.06681800  0.88292900  0.06681800  1
  C  C23  1  0.34198000  0.93562700  0.93562700  1
  C  C24  1  0.93562700  0.34198000  0.93562700  1
  C  C25  1  0.93562700  0.93562700  0.34198000  1
  C  C26  1  0.69168000  0.69168000  0.41034700  1
  C  C27  1  0.41034700  0.69168000  0.69168000  1
  C  C28  1  0.69168000  0.41034700  0.69168000  1
  C  C29  1  0.79607500  0.52181600  0.52181600  1
  C  C30  1  0.52181600  0.79607500  0.52181600  1
  C  C31  1  0.52181600  0.52181600  0.79607500  1
  C  C32  1  0.50574300  0.29937900  0.11642400  1
  C  C33  1  0.11642400  0.50574300  0.29937900  1
  C  C34  1  0.29937900  0.11642400  0.50574300  1
  C  C35  1  0.11642400  0.29937900  0.50574300  1
  C  C36  1  0.50574300  0.11642400  0.29937900  1
  C  C37  1  0.29937900  0.50574300  0.11642400  1
  C  C38  1  0.89845000  0.61398300  0.32807000  1
  C  C39  1  0.32807000  0.89845000  0.61398300  1
  C  C40  1  0.61398300  0.32807000  0.89845000  1
  C  C41  1  0.32807000  0.61398300  0.89845000  1
  C  C42  1  0.89845000  0.32807000  0.61398300  1
  C  C43  1  0.61398300  0.89845000  0.32807000  1
  C  C44  1  0.03663100  0.18684800  0.70651200  1
  C  C45  1  0.70651200  0.03663100  0.18684800  1
  C  C46  1  0.18684800  0.70651200  0.03663100  1
  C  C47  1  0.70651200  0.18684800  0.03663100  1
  C  C48  1  0.03663100  0.70651200  0.18684800  1
  C  C49  1  0.18684800  0.03663100  0.70651200  1
