# generated using pymatgen
data_CuNi5C3
_symmetry_space_group_name_H-M   'P 1'
_cell_length_a   4.54501589
_cell_length_b   4.54501589
_cell_length_c   9.02403500
_cell_angle_alpha   90.00000000
_cell_angle_beta   90.00000000
_cell_angle_gamma   92.04360528
_symmetry_Int_Tables_number   1
_chemical_formula_structural   CuNi5C3
_chemical_formula_sum   'Cu2 Ni10 C6'
_cell_volume   186.29245820
_cell_formula_units_Z   2
loop_
 _symmetry_equiv_pos_site_id
 _symmetry_equiv_pos_as_xyz
  1  'x, y, z'
loop_
 _atom_site_type_symbol
 _atom_site_label
 _atom_site_symmetry_multiplicity
 _atom_site_fract_x
 _atom_site_fract_y
 _atom_site_fract_z
 _atom_site_occupancy
  C  C0  1  0.99270100  0.00729900  0.65968100  1
  C  C1  1  0.99270100  0.00729900  0.34031900  1
  C  C2  1  0.98365300  0.01634700  0.00000000  1
  C  C3  1  0.51678200  0.48321800  0.83229200  1
  C  C4  1  0.49319500  0.50680500  0.50000000  1
  C  C5  1  0.51678200  0.48321800  0.16770800  1
  Ni  Ni6  1  0.80294500  0.19705500  0.50000000  1
  Ni  Ni7  1  0.80524300  0.19475700  0.17185300  1
  Ni  Ni8  1  0.80524300  0.19475700  0.82814700  1
  Ni  Ni9  1  0.30505100  0.30574300  0.66644500  1
  Ni  Ni10  1  0.30505100  0.30574300  0.33355500  1
  Ni  Ni11  1  0.30728900  0.30346800  0.00000000  1
  Ni  Ni12  1  0.69425700  0.69494900  0.66644500  1
  Ni  Ni13  1  0.69425700  0.69494900  0.33355500  1
  Ni  Ni14  1  0.69653200  0.69271100  0.00000000  1
  Ni  Ni15  1  0.19061000  0.80939000  0.50000000  1
  Cu  Cu16  1  0.19885500  0.80114500  0.16941000  1
  Cu  Cu17  1  0.19885500  0.80114500  0.83059000  1
