# generated using pymatgen
data_Cu2Ni2C9
_symmetry_space_group_name_H-M   'P 1'
_cell_length_a   5.68365781
_cell_length_b   5.68365781
_cell_length_c   5.63893633
_cell_angle_alpha   61.27548230
_cell_angle_beta   61.27548230
_cell_angle_gamma   61.65860877
_symmetry_Int_Tables_number   1
_chemical_formula_structural   Cu2Ni2C9
_chemical_formula_sum   'Cu2 Ni2 C9'
_cell_volume   132.86266789
_cell_formula_units_Z   1
loop_
 _symmetry_equiv_pos_site_id
 _symmetry_equiv_pos_as_xyz
  1  'x, y, z'
loop_
 _atom_site_type_symbol
 _atom_site_label
 _atom_site_symmetry_multiplicity
 _atom_site_fract_x
 _atom_site_fract_y
 _atom_site_fract_z
 _atom_site_occupancy
  C  C0  1  0.50000000  0.50000000  0.50000000  1
  Ni  Ni1  1  0.00000000  0.50000000  0.00000000  1
  Ni  Ni2  1  0.50000000  0.00000000  0.00000000  1
  Cu  Cu3  1  0.00000000  0.00000000  0.50000000  1
  Cu  Cu4  1  0.00000000  0.00000000  0.00000000  1
  C  C5  1  0.76414000  0.20911200  0.75792000  1
  C  C6  1  0.23384000  0.23384000  0.24403200  1
  C  C7  1  0.20911200  0.76414000  0.75792000  1
  C  C8  1  0.24005200  0.24005200  0.78721500  1
  C  C9  1  0.75994800  0.75994800  0.21278500  1
  C  C10  1  0.79088800  0.23586000  0.24208000  1
  C  C11  1  0.76616000  0.76616000  0.75596800  1
  C  C12  1  0.23586000  0.79088800  0.24208000  1
