# generated using pymatgen
data_Cu3NiC10
_symmetry_space_group_name_H-M   'P 1'
_cell_length_a   6.13445760
_cell_length_b   6.13445760
_cell_length_c   10.26159800
_cell_angle_alpha   90.00000000
_cell_angle_beta   90.00000000
_cell_angle_gamma   119.99999564
_symmetry_Int_Tables_number   1
_chemical_formula_structural   Cu3NiC10
_chemical_formula_sum   'Cu6 Ni2 C20'
_cell_volume   334.42442221
_cell_formula_units_Z   2
loop_
 _symmetry_equiv_pos_site_id
 _symmetry_equiv_pos_as_xyz
  1  'x, y, z'
loop_
 _atom_site_type_symbol
 _atom_site_label
 _atom_site_symmetry_multiplicity
 _atom_site_fract_x
 _atom_site_fract_y
 _atom_site_fract_z
 _atom_site_occupancy
  C  C0  1  0.33333300  0.66666700  0.89036300  1
  C  C1  1  0.00000000  0.00000000  0.99527300  1
  C  C2  1  0.00000000  0.00000000  0.49527300  1
  C  C3  1  0.66666700  0.33333300  0.39036300  1
  Ni  Ni4  1  0.33333300  0.66666700  0.50118500  1
  Ni  Ni5  1  0.66666700  0.33333300  0.00118500  1
  Cu  Cu6  1  0.17679000  0.82321000  0.21410100  1
  Cu  Cu7  1  0.17679000  0.35358100  0.21410100  1
  Cu  Cu8  1  0.64641900  0.82321000  0.21410100  1
  Cu  Cu9  1  0.35358100  0.17679000  0.71410100  1
  Cu  Cu10  1  0.82321000  0.64641900  0.71410100  1
  Cu  Cu11  1  0.82321000  0.17679000  0.71410100  1
  C  C12  1  0.15650700  0.84349300  0.60618600  1
  C  C13  1  0.02561200  0.51280600  0.33586100  1
  C  C14  1  0.33333300  0.66666700  0.08454200  1
  C  C15  1  0.00000000  0.00000000  0.31411500  1
  C  C16  1  0.00000000  0.00000000  0.81411500  1
  C  C17  1  0.15650700  0.31301400  0.60618600  1
  C  C18  1  0.48719400  0.97438800  0.33586100  1
  C  C19  1  0.48719400  0.51280600  0.33586100  1
  C  C20  1  0.31301400  0.15650700  0.10618600  1
  C  C21  1  0.68698600  0.84349300  0.60618600  1
  C  C22  1  0.51280600  0.48719400  0.83586100  1
  C  C23  1  0.51280600  0.02561200  0.83586100  1
  C  C24  1  0.66666700  0.33333300  0.58454200  1
  C  C25  1  0.84349300  0.68698600  0.10618600  1
  C  C26  1  0.97438800  0.48719400  0.83586100  1
  C  C27  1  0.84349300  0.15650700  0.10618600  1
