# generated using pymatgen
data_Cu3NiC36
_symmetry_space_group_name_H-M   'P 1'
_cell_length_a   8.62630800
_cell_length_b   8.63295587
_cell_length_c   8.74706411
_cell_angle_alpha   61.29162971
_cell_angle_beta   62.15235226
_cell_angle_gamma   62.02203888
_symmetry_Int_Tables_number   1
_chemical_formula_structural   Cu3NiC36
_chemical_formula_sum   'Cu3 Ni1 C36'
_cell_volume   479.34472977
_cell_formula_units_Z   1
loop_
 _symmetry_equiv_pos_site_id
 _symmetry_equiv_pos_as_xyz
  1  'x, y, z'
loop_
 _atom_site_type_symbol
 _atom_site_label
 _atom_site_symmetry_multiplicity
 _atom_site_fract_x
 _atom_site_fract_y
 _atom_site_fract_z
 _atom_site_occupancy
  C  C0  1  0.99162300  0.97184500  0.99675900  1
  C  C1  1  0.85235200  0.25458100  0.64103900  1
  C  C2  1  0.49060500  0.52447400  0.51021700  1
  C  C3  1  0.16136800  0.69854100  0.35397500  1
  C  C4  1  0.70588700  0.35040500  0.16267300  1
  C  C5  1  0.34861500  0.16976700  0.69875200  1
  Ni  Ni6  1  0.14914700  0.14591000  0.14904100  1
  Cu  Cu7  1  0.85246000  0.85790100  0.86133200  1
  Cu  Cu8  1  0.63973500  0.64147000  0.64624500  1
  Cu  Cu9  1  0.35150400  0.34864500  0.34465800  1
  C  C10  1  0.25094200  0.94428300  0.56338300  1
  C  C11  1  0.94105800  0.56090700  0.25533200  1
  C  C12  1  0.56437200  0.25164400  0.94403200  1
  C  C13  1  0.46138600  0.74770700  0.03791200  1
  C  C14  1  0.03514900  0.46373400  0.75155900  1
  C  C15  1  0.74922000  0.04174000  0.46822500  1
  C  C16  1  0.71254200  0.86946200  0.50531700  1
  C  C17  1  0.48653100  0.70735100  0.87488800  1
  C  C18  1  0.08448600  0.93431100  0.74151400  1
  C  C19  1  0.87985600  0.47087400  0.70401600  1
  C  C20  1  0.40923800  0.75917300  0.57197100  1
  C  C21  1  0.19277900  0.98958200  0.39643600  1
  C  C22  1  0.91495900  0.74655900  0.09691500  1
  C  C23  1  0.76180400  0.55082300  0.42196100  1
  C  C24  1  0.57168100  0.40668100  0.75281000  1
  C  C25  1  0.61512900  0.80878700  0.00813200  1
  C  C26  1  0.26524000  0.90380800  0.07500200  1
  C  C27  1  0.98336700  0.62452500  0.81072100  1
  C  C28  1  0.99080300  0.39306100  0.19553300  1
  C  C29  1  0.75305800  0.09562300  0.91295100  1
  C  C30  1  0.39771600  0.18946000  0.99512400  1
  C  C31  1  0.44323000  0.58198300  0.22340800  1
  C  C32  1  0.22216100  0.45321900  0.59478100  1
  C  C33  1  0.07169400  0.26885100  0.91099600  1
  C  C34  1  0.80565300  0.02687700  0.61885300  1
  C  C35  1  0.58523200  0.22555100  0.44267600  1
  C  C36  1  0.09810500  0.53456200  0.31125000  1
  C  C37  1  0.90639900  0.07139600  0.27529400  1
  C  C38  1  0.54970600  0.30810000  0.09032800  1
  C  C39  1  0.30420400  0.10582300  0.53298700  1
