# generated using pymatgen
data_Cu5Ni7C6
_symmetry_space_group_name_H-M   'P 1'
_cell_length_a   5.75329000
_cell_length_b   6.07196289
_cell_length_c   6.14540752
_cell_angle_alpha   101.32417575
_cell_angle_beta   99.01100163
_cell_angle_gamma   100.03970617
_symmetry_Int_Tables_number   1
_chemical_formula_structural   Cu5Ni7C6
_chemical_formula_sum   'Cu5 Ni7 C6'
_cell_volume   203.18937581
_cell_formula_units_Z   1
loop_
 _symmetry_equiv_pos_site_id
 _symmetry_equiv_pos_as_xyz
  1  'x, y, z'
loop_
 _atom_site_type_symbol
 _atom_site_label
 _atom_site_symmetry_multiplicity
 _atom_site_fract_x
 _atom_site_fract_y
 _atom_site_fract_z
 _atom_site_occupancy
  C  C0  1  0.70077500  0.86451700  0.38995100  1
  C  C1  1  0.15824800  0.61849100  0.35025400  1
  C  C2  1  0.40213100  0.67251900  0.85061800  1
  C  C3  1  0.59915900  0.32370200  0.14094700  1
  C  C4  1  0.84821500  0.39907600  0.66096300  1
  C  C5  1  0.31524100  0.13168600  0.59366100  1
  Ni  Ni6  1  0.06827100  0.90205300  0.35769300  1
  Ni  Ni7  1  0.43668700  0.81780700  0.58420000  1
  Ni  Ni8  1  0.40339400  0.58175800  0.17604900  1
  Ni  Ni9  1  0.81388600  0.56954800  0.41879700  1
  Ni  Ni10  1  0.18133900  0.41964700  0.56666100  1
  Ni  Ni11  1  0.57982100  0.42026000  0.82650400  1
  Ni  Ni12  1  0.57228900  0.17144200  0.40743700  1
  Cu  Cu13  1  0.67482900  0.90650000  0.06293800  1
  Cu  Cu14  1  0.06178700  0.67668000  0.88198700  1
  Cu  Cu15  1  0.94661100  0.34799000  0.10265200  1
  Cu  Cu16  1  0.32843900  0.09120200  0.92175100  1
  Cu  Cu17  1  0.90182000  0.08543200  0.68511800  1
