# generated using pymatgen
data_Cu3NiC3
_symmetry_space_group_name_H-M   'P 1'
_cell_length_a   5.01875800
_cell_length_b   5.17862400
_cell_length_c   11.59613300
_cell_angle_alpha   90.00000000
_cell_angle_beta   90.00000000
_cell_angle_gamma   90.00000000
_symmetry_Int_Tables_number   1
_chemical_formula_structural   Cu3NiC3
_chemical_formula_sum   'Cu12 Ni4 C12'
_cell_volume   301.38651896
_cell_formula_units_Z   4
loop_
 _symmetry_equiv_pos_site_id
 _symmetry_equiv_pos_as_xyz
  1  'x, y, z'
loop_
 _atom_site_type_symbol
 _atom_site_label
 _atom_site_symmetry_multiplicity
 _atom_site_fract_x
 _atom_site_fract_y
 _atom_site_fract_z
 _atom_site_occupancy
  C  C0  1  0.00000000  0.00000000  0.20797400  1
  C  C1  1  0.00000000  0.50000000  0.35209100  1
  C  C2  1  0.00000000  0.00000000  0.62752400  1
  C  C3  1  0.00000000  0.50000000  0.77840000  1
  C  C4  1  0.50000000  0.50000000  0.27840000  1
  C  C5  1  0.50000000  0.00000000  0.70797400  1
  C  C6  1  0.50000000  0.50000000  0.85209100  1
  C  C7  1  0.50000000  0.00000000  0.12752400  1
  C  C8  1  0.00000000  0.50000000  0.07152400  1
  C  C9  1  0.00000000  0.00000000  0.94276900  1
  C  C10  1  0.50000000  0.50000000  0.57152400  1
  C  C11  1  0.50000000  0.00000000  0.44276900  1
  Ni  Ni12  1  0.79973500  0.17873900  0.06046300  1
  Ni  Ni13  1  0.70026500  0.17873900  0.56046300  1
  Ni  Ni14  1  0.29973500  0.82126100  0.56046300  1
  Ni  Ni15  1  0.20026500  0.82126100  0.06046300  1
  Cu  Cu16  1  0.77539600  0.66318700  0.93974300  1
  Cu  Cu17  1  0.77769800  0.67175700  0.19741900  1
  Cu  Cu18  1  0.78330100  0.17985100  0.81225600  1
  Cu  Cu19  1  0.71669900  0.17985100  0.31225600  1
  Cu  Cu20  1  0.72230200  0.67175700  0.69741900  1
  Cu  Cu21  1  0.72460400  0.66318700  0.43974300  1
  Cu  Cu22  1  0.27539600  0.33681300  0.43974300  1
  Cu  Cu23  1  0.28330100  0.82014900  0.31225600  1
  Cu  Cu24  1  0.27769800  0.32824300  0.69741900  1
  Cu  Cu25  1  0.22230200  0.32824300  0.19741900  1
  Cu  Cu26  1  0.21669900  0.82014900  0.81225600  1
  Cu  Cu27  1  0.22460400  0.33681300  0.93974300  1
