# generated using pymatgen
data_Cu3NiC20
_symmetry_space_group_name_H-M   'P 1'
_cell_length_a   5.24212300
_cell_length_b   6.02598764
_cell_length_c   16.13566776
_cell_angle_alpha   81.59488248
_cell_angle_beta   89.51560483
_cell_angle_gamma   88.72641632
_symmetry_Int_Tables_number   1
_chemical_formula_structural   Cu3NiC20
_chemical_formula_sum   'Cu6 Ni2 C40'
_cell_volume   504.10291028
_cell_formula_units_Z   2
loop_
 _symmetry_equiv_pos_site_id
 _symmetry_equiv_pos_as_xyz
  1  'x, y, z'
loop_
 _atom_site_type_symbol
 _atom_site_label
 _atom_site_symmetry_multiplicity
 _atom_site_fract_x
 _atom_site_fract_y
 _atom_site_fract_z
 _atom_site_occupancy
  C  C0  1  0.84265000  0.81590100  0.13830000  1
  C  C1  1  0.15735000  0.18409900  0.86170000  1
  C  C2  1  0.65161900  0.93482100  0.61282400  1
  C  C3  1  0.34838100  0.06517900  0.38717600  1
  C  C4  1  0.65546300  0.43879500  0.10827800  1
  C  C5  1  0.34453700  0.56120500  0.89172200  1
  C  C6  1  0.84793500  0.31695800  0.63976300  1
  C  C7  1  0.15206500  0.68304200  0.36023700  1
  Ni  Ni8  1  0.67047000  0.52030500  0.29164200  1
  Ni  Ni9  1  0.32953000  0.47969500  0.70835800  1
  Cu  Cu10  1  0.66296300  0.02287300  0.79235800  1
  Cu  Cu11  1  0.17040800  0.78085200  0.53683600  1
  Cu  Cu12  1  0.33703700  0.97712700  0.20764200  1
  Cu  Cu13  1  0.16263000  0.27361900  0.04260300  1
  Cu  Cu14  1  0.82959200  0.21914800  0.46316400  1
  Cu  Cu15  1  0.83737000  0.72638100  0.95739700  1
  C  C16  1  0.32710600  0.78980900  0.04591300  1
  C  C17  1  0.83013700  0.03611200  0.29638700  1
  C  C18  1  0.67289400  0.21019100  0.95408700  1
  C  C19  1  0.16986300  0.96388800  0.70361300  1
  C  C20  1  0.82928100  0.53553500  0.79781800  1
  C  C21  1  0.32774700  0.28688500  0.54463300  1
  C  C22  1  0.17071900  0.46446500  0.20218200  1
  C  C23  1  0.67225300  0.71311500  0.45536700  1
  C  C24  1  0.58708400  0.76296900  0.05592000  1
  C  C25  1  0.18226300  0.91777500  0.09601000  1
  C  C26  1  0.70411200  0.92800600  0.23823300  1
  C  C27  1  0.29588800  0.07199400  0.76176700  1
  C  C28  1  0.79178200  0.82821500  0.51282200  1
  C  C29  1  0.81773700  0.08222500  0.90399000  1
  C  C30  1  0.31360100  0.83526100  0.65369800  1
  C  C31  1  0.08950700  0.00904700  0.30682900  1
  C  C32  1  0.41291600  0.23703100  0.94408000  1
  C  C33  1  0.91049300  0.99095300  0.69317100  1
  C  C34  1  0.68639900  0.16473900  0.34630200  1
  C  C35  1  0.20821800  0.17178500  0.48717800  1
  C  C36  1  0.79712500  0.31942500  0.01202800  1
  C  C37  1  0.32014200  0.33452500  0.15366200  1
  C  C38  1  0.08871800  0.51111800  0.81083100  1
  C  C39  1  0.58749600  0.26325400  0.55773500  1
  C  C40  1  0.91128200  0.48888200  0.18916900  1
  C  C41  1  0.67985800  0.66547500  0.84633800  1
  C  C42  1  0.18149200  0.42008800  0.59198400  1
  C  C43  1  0.20287500  0.68057500  0.98797200  1
  C  C44  1  0.71148800  0.42642700  0.73857200  1
  C  C45  1  0.28851200  0.57357300  0.26142800  1
  C  C46  1  0.81850800  0.57991200  0.40801600  1
  C  C47  1  0.41250400  0.73674600  0.44226500  1
