# generated using pymatgen
data_Cu5NiC3
_symmetry_space_group_name_H-M   'P 1'
_cell_length_a   5.62698948
_cell_length_b   5.62698948
_cell_length_c   7.28440981
_cell_angle_alpha   72.78738557
_cell_angle_beta   72.78738557
_cell_angle_gamma   73.13765929
_symmetry_Int_Tables_number   1
_chemical_formula_structural   Cu5NiC3
_chemical_formula_sum   'Cu10 Ni2 C6'
_cell_volume   205.20062935
_cell_formula_units_Z   2
loop_
 _symmetry_equiv_pos_site_id
 _symmetry_equiv_pos_as_xyz
  1  'x, y, z'
loop_
 _atom_site_type_symbol
 _atom_site_label
 _atom_site_symmetry_multiplicity
 _atom_site_fract_x
 _atom_site_fract_y
 _atom_site_fract_z
 _atom_site_occupancy
  C  C0  1  0.33456600  0.33456600  0.16582900  1
  C  C1  1  0.32442100  0.32442100  0.66314600  1
  C  C2  1  0.00000000  0.00000000  0.00000000  1
  C  C3  1  0.00000000  0.00000000  0.50000000  1
  C  C4  1  0.66543400  0.66543400  0.83417100  1
  C  C5  1  0.67557900  0.67557900  0.33685400  1
  Ni  Ni6  1  0.90361100  0.90361100  0.29556600  1
  Ni  Ni7  1  0.09638900  0.09638900  0.70443400  1
  Cu  Cu8  1  0.63164700  0.02656500  0.66464600  1
  Cu  Cu9  1  0.30381200  0.69618800  0.00000000  1
  Cu  Cu10  1  0.23351900  0.23351900  0.96371900  1
  Cu  Cu11  1  0.55938700  0.55938700  0.63447300  1
  Cu  Cu12  1  0.44061300  0.44061300  0.36552700  1
  Cu  Cu13  1  0.76648100  0.76648100  0.03628100  1
  Cu  Cu14  1  0.36835300  0.97343500  0.33535400  1
  Cu  Cu15  1  0.02656500  0.63164700  0.66464600  1
  Cu  Cu16  1  0.69618800  0.30381200  0.00000000  1
  Cu  Cu17  1  0.97343500  0.36835300  0.33535400  1
