# generated using pymatgen
data_Cu21Ni6C25
_symmetry_space_group_name_H-M   'P 1'
_cell_length_a   20.09150629
_cell_length_b   17.91697195
_cell_length_c   10.64843733
_cell_angle_alpha   85.37943249
_cell_angle_beta   62.73162467
_cell_angle_gamma   31.88894285
_symmetry_Int_Tables_number   1
_chemical_formula_structural   Cu21Ni6C25
_chemical_formula_sum   'Cu42 Ni12 C50'
_cell_volume   1357.14017800
_cell_formula_units_Z   2
loop_
 _symmetry_equiv_pos_site_id
 _symmetry_equiv_pos_as_xyz
  1  'x, y, z'
loop_
 _atom_site_type_symbol
 _atom_site_label
 _atom_site_symmetry_multiplicity
 _atom_site_fract_x
 _atom_site_fract_y
 _atom_site_fract_z
 _atom_site_occupancy
  C  C0  1  0.73470500  0.25750600  0.46836100  1
  C  C1  1  0.78163900  0.71057200  0.51529500  1
  C  C2  1  0.99249400  0.51529500  0.71057200  1
  C  C3  1  0.53942800  0.46836100  0.25750600  1
  C  C4  1  0.52112800  0.79309600  0.50156700  1
  C  C5  1  0.16251300  0.29010600  0.97274200  1
  C  C6  1  0.27725800  0.67536000  0.08748700  1
  C  C7  1  0.74843300  0.06579100  0.72887200  1
  C  C8  1  0.45690400  0.72887200  0.06579100  1
  C  C9  1  0.95989400  0.08748700  0.67536000  1
  C  C10  1  0.57464000  0.97274200  0.29010600  1
  C  C11  1  0.18420900  0.50156700  0.79309600  1
  C  C12  1  0.09891600  0.96605100  0.91619700  1
  C  C13  1  0.32066700  0.79512700  0.70017700  1
  C  C14  1  0.77566300  0.96148000  0.29254900  1
  C  C15  1  0.11740600  0.12163300  0.03837800  1
  C  C16  1  0.66261100  0.49625800  0.50768400  1
  C  C17  1  0.77584800  0.03271400  0.39597600  1
  C  C18  1  0.59468400  0.03702900  0.59427100  1
  C  C19  1  0.08094300  0.06604500  0.14112200  1
  C  C20  1  0.10887800  0.53811000  0.16905700  1
  C  C21  1  0.65572900  0.47598400  0.65531600  1
  C  C22  1  0.85402400  0.45453800  0.47415200  1
  C  C23  1  0.74231600  0.91655300  0.58738900  1
  C  C24  1  0.21162200  0.52741700  0.13259400  1
  C  C25  1  0.95745100  0.27969200  0.47433700  1
  C  C26  1  0.54982300  0.06597000  0.92933300  1
  C  C27  1  0.33380300  0.23116500  0.15108400  1
  C  C28  1  0.28394900  0.15108400  0.23116500  1
  C  C29  1  0.45487300  0.92933300  0.06597000  1
  C  C30  1  0.28852000  0.47433700  0.27969200  1
  C  C31  1  0.12836700  0.13259400  0.52741700  1
  C  C32  1  0.75374200  0.58738900  0.91655300  1
  C  C33  1  0.21728600  0.47415200  0.45453800  1
  C  C34  1  0.21297100  0.65531600  0.47598400  1
  C  C35  1  0.18395500  0.16905700  0.53811000  1
  C  C36  1  0.71189000  0.14112200  0.06604500  1
  C  C37  1  0.77401600  0.59427100  0.03702900  1
  C  C38  1  0.79546200  0.39597600  0.03271400  1
  C  C39  1  0.33344700  0.50768400  0.49625800  1
  C  C40  1  0.72258300  0.03837800  0.12163300  1
  C  C41  1  0.97030800  0.29254900  0.96148000  1
  C  C42  1  0.18403000  0.70017700  0.79512700  1
  C  C43  1  0.01883500  0.91619700  0.96605100  1
  C  C44  1  0.92191200  0.23617400  0.10042500  1
  C  C45  1  0.14957500  0.50851200  0.32808800  1
  C  C46  1  0.52660500  0.97339500  0.97339500  1
  C  C47  1  0.01382600  0.32808800  0.50851200  1
  C  C48  1  0.74148800  0.10042500  0.23617400  1
  C  C49  1  0.27660500  0.72339500  0.72339500  1
  Ni  Ni50  1  0.22678200  0.83868900  0.78458400  1
  Ni  Ni51  1  0.76354700  0.02770500  0.31622000  1
  Ni  Ni52  1  0.05934800  0.12297900  0.08148600  1
  Ni  Ni53  1  0.16851400  0.51381300  0.19065200  1
  Ni  Ni54  1  0.93378000  0.35747200  0.48645300  1
  Ni  Ni55  1  0.46541600  0.10005600  0.02321800  1
  Ni  Ni56  1  0.41131100  0.02321800  0.10005600  1
  Ni  Ni57  1  0.22229500  0.48645300  0.35747200  1
  Ni  Ni58  1  0.12702100  0.19065200  0.51381300  1
  Ni  Ni59  1  0.73618700  0.08148600  0.12297900  1
  Ni  Ni60  1  0.89252800  0.31622000  0.02770500  1
  Ni  Ni61  1  0.14994400  0.78458400  0.83868900  1
  Cu  Cu62  1  0.82887200  0.25998300  0.17804600  1
  Cu  Cu63  1  0.99199000  0.67903400  0.03607100  1
  Cu  Cu64  1  0.51397400  0.70114400  0.52135700  1
  Cu  Cu65  1  0.64657900  0.86821000  0.38571400  1
  Cu  Cu66  1  0.36007500  0.28636100  0.74012500  1
  Cu  Cu67  1  0.06573900  0.28960000  0.07236800  1
  Cu  Cu68  1  0.65874600  0.69865300  0.52286500  1
  Cu  Cu69  1  0.40710800  0.06008600  0.80399300  1
  Cu  Cu70  1  0.07192600  0.42992500  0.15374800  1
  Cu  Cu71  1  0.72165500  0.40679000  0.52757600  1
  Cu  Cu72  1  0.72242400  0.90602100  0.52834500  1
  Cu  Cu73  1  0.09625200  0.90559900  0.17807400  1
  Cu  Cu74  1  0.44600700  0.52118700  0.84289200  1
  Cu  Cu75  1  0.72713500  0.13026400  0.59125400  1
  Cu  Cu76  1  0.17763200  0.67770700  0.18426100  1
  Cu  Cu77  1  0.50987500  0.63656100  0.88992500  1
  Cu  Cu78  1  0.86428600  0.15050300  0.60342100  1
  Cu  Cu79  1  0.72864300  0.98647500  0.73602600  1
  Cu  Cu80  1  0.21392900  0.95709400  0.25801000  1
  Cu  Cu81  1  0.07195400  0.51690100  0.42112800  1
  Cu  Cu82  1  0.69015100  0.80984900  0.80984900  1
  Cu  Cu83  1  0.99001700  0.42112800  0.51690100  1
  Cu  Cu84  1  0.57096600  0.25801000  0.95709400  1
  Cu  Cu85  1  0.54885600  0.73602600  0.98647500  1
  Cu  Cu86  1  0.38179000  0.60342100  0.15050300  1
  Cu  Cu87  1  0.96363900  0.88992500  0.63656100  1
  Cu  Cu88  1  0.96040000  0.18426100  0.67770700  1
  Cu  Cu89  1  0.55134700  0.59125400  0.13026400  1
  Cu  Cu90  1  0.18991400  0.84289200  0.52118700  1
  Cu  Cu91  1  0.82007500  0.17807400  0.90559900  1
  Cu  Cu92  1  0.84321000  0.52834500  0.90602100  1
  Cu  Cu93  1  0.34397900  0.52757600  0.40679000  1
  Cu  Cu94  1  0.34440100  0.15374800  0.42992500  1
  Cu  Cu95  1  0.72881300  0.80399300  0.06008600  1
  Cu  Cu96  1  0.11973600  0.52286500  0.69865300  1
  Cu  Cu97  1  0.57229300  0.07236800  0.28960000  1
  Cu  Cu98  1  0.61343900  0.74012500  0.28636100  1
  Cu  Cu99  1  0.09949700  0.38571400  0.86821000  1
  Cu  Cu100  1  0.26352500  0.52135700  0.70114400  1
  Cu  Cu101  1  0.29290600  0.03607100  0.67903400  1
  Cu  Cu102  1  0.73309900  0.17804600  0.25998300  1
  Cu  Cu103  1  0.44015100  0.55984900  0.55984900  1
