# generated using pymatgen
data_Cu3NiC12
_symmetry_space_group_name_H-M   'P 1'
_cell_length_a   5.95769412
_cell_length_b   5.95667641
_cell_length_c   8.40700325
_cell_angle_alpha   90.16155892
_cell_angle_beta   89.99042709
_cell_angle_gamma   89.97812911
_symmetry_Int_Tables_number   1
_chemical_formula_structural   Cu3NiC12
_chemical_formula_sum   'Cu6 Ni2 C24'
_cell_volume   298.34699045
_cell_formula_units_Z   2
loop_
 _symmetry_equiv_pos_site_id
 _symmetry_equiv_pos_as_xyz
  1  'x, y, z'
loop_
 _atom_site_type_symbol
 _atom_site_label
 _atom_site_symmetry_multiplicity
 _atom_site_fract_x
 _atom_site_fract_y
 _atom_site_fract_z
 _atom_site_occupancy
  C  C0  1  0.00000000  0.00000000  0.00000000  1
  C  C1  1  0.00000000  0.50000000  0.50000000  1
  C  C2  1  0.50000000  0.00000000  0.00000000  1
  C  C3  1  0.49999900  0.50000000  0.50000000  1
  C  C4  1  0.25259200  0.25013500  0.25052100  1
  C  C5  1  0.25260000  0.74997800  0.74986700  1
  C  C6  1  0.74740800  0.74986500  0.74947900  1
  C  C7  1  0.74740000  0.25002200  0.25013200  1
  Ni  Ni8  1  0.00000000  0.50000100  0.00000000  1
  Ni  Ni9  1  0.00000000  0.00000100  0.50000000  1
  Cu  Cu10  1  0.50000300  0.00000300  0.50000100  1
  Cu  Cu11  1  0.50000100  0.50000000  0.00000100  1
  Cu  Cu12  1  0.25023200  0.25093100  0.75025600  1
  Cu  Cu13  1  0.25017900  0.74912500  0.24962500  1
  Cu  Cu14  1  0.74977000  0.74906400  0.24974200  1
  Cu  Cu15  1  0.74981800  0.25087600  0.75037700  1
  C  C16  1  0.99984000  0.98327200  0.25699800  1
  C  C17  1  0.99992700  0.48402300  0.75537100  1
  C  C18  1  0.00015800  0.01672800  0.74300200  1
  C  C19  1  0.00007400  0.51597700  0.24462800  1
  C  C20  1  0.49993400  0.98228600  0.25868900  1
  C  C21  1  0.49998900  0.48253600  0.75945400  1
  C  C22  1  0.50006800  0.01771500  0.74131000  1
  C  C23  1  0.50000900  0.51746400  0.24054700  1
  C  C24  1  0.25318400  0.76519000  0.49141200  1
  C  C25  1  0.25218900  0.26446000  0.99216300  1
  C  C26  1  0.25353800  0.23527100  0.50867100  1
  C  C27  1  0.25258900  0.73605100  0.00785800  1
  C  C28  1  0.74646300  0.76472800  0.49132800  1
  C  C29  1  0.74741000  0.26395000  0.99214300  1
  C  C30  1  0.74681700  0.23481200  0.50858800  1
  C  C31  1  0.74781100  0.73553900  0.00783600  1
