# generated using pymatgen
data_Cu3NiC3
_symmetry_space_group_name_H-M   'P 1'
_cell_length_a   6.12846700
_cell_length_b   6.16936700
_cell_length_c   8.49632974
_cell_angle_alpha   89.49982819
_cell_angle_beta   90.00000000
_cell_angle_gamma   90.00000000
_symmetry_Int_Tables_number   1
_chemical_formula_structural   Cu3NiC3
_chemical_formula_sum   'Cu12 Ni4 C12'
_cell_volume   321.22346940
_cell_formula_units_Z   4
loop_
 _symmetry_equiv_pos_site_id
 _symmetry_equiv_pos_as_xyz
  1  'x, y, z'
loop_
 _atom_site_type_symbol
 _atom_site_label
 _atom_site_symmetry_multiplicity
 _atom_site_fract_x
 _atom_site_fract_y
 _atom_site_fract_z
 _atom_site_occupancy
  C  C0  1  0.00329700  0.76577500  0.74898200  1
  C  C1  1  0.00329700  0.23422500  0.25101800  1
  C  C2  1  0.76553900  0.50000000  0.00000000  1
  C  C3  1  0.76824200  0.00000000  0.00000000  1
  C  C4  1  0.20868900  0.00000000  0.50000000  1
  C  C5  1  0.21413200  0.50000000  0.50000000  1
  C  C6  1  0.24793800  0.77948900  0.13202200  1
  C  C7  1  0.24793800  0.22051100  0.86797800  1
  C  C8  1  0.49217100  0.76349100  0.75496400  1
  C  C9  1  0.49217100  0.23650900  0.24503600  1
  C  C10  1  0.77094700  0.73957100  0.37414900  1
  C  C11  1  0.77094700  0.26042900  0.62585100  1
  Ni  Ni12  1  0.01152400  0.74212200  0.50919000  1
  Ni  Ni13  1  0.01152400  0.25787800  0.49081000  1
  Ni  Ni14  1  0.26419600  0.97829200  0.73499700  1
  Ni  Ni15  1  0.26419600  0.02170800  0.26500300  1
  Cu  Cu16  1  0.25030500  0.51200700  0.75491900  1
  Cu  Cu17  1  0.25030500  0.48799300  0.24508100  1
  Cu  Cu18  1  0.49074500  0.72586900  0.50464100  1
  Cu  Cu19  1  0.49074500  0.27413100  0.49535900  1
  Cu  Cu20  1  0.51891900  0.75148900  0.99872700  1
  Cu  Cu21  1  0.51891900  0.24851100  0.00127300  1
  Cu  Cu22  1  0.75154000  0.00910700  0.23740900  1
  Cu  Cu23  1  0.75154000  0.99089300  0.76259100  1
  Cu  Cu24  1  0.73502100  0.52438900  0.76397800  1
  Cu  Cu25  1  0.73502100  0.47561100  0.23602200  1
  Cu  Cu26  1  0.98509600  0.75154600  0.99626800  1
  Cu  Cu27  1  0.98509600  0.24845400  0.00373200  1
