# generated using pymatgen
data_Cu8Ni2C11
_symmetry_space_group_name_H-M   'P 1'
_cell_length_a   8.42574900
_cell_length_b   8.42574900
_cell_length_c   5.81121800
_cell_angle_alpha   90.00000000
_cell_angle_beta   90.00000000
_cell_angle_gamma   90.00000000
_symmetry_Int_Tables_number   1
_chemical_formula_structural   Cu8Ni2C11
_chemical_formula_sum   'Cu16 Ni4 C22'
_cell_volume   412.55723026
_cell_formula_units_Z   2
loop_
 _symmetry_equiv_pos_site_id
 _symmetry_equiv_pos_as_xyz
  1  'x, y, z'
loop_
 _atom_site_type_symbol
 _atom_site_label
 _atom_site_symmetry_multiplicity
 _atom_site_fract_x
 _atom_site_fract_y
 _atom_site_fract_z
 _atom_site_occupancy
  C  C0  1  0.50000000  0.50000000  0.09692600  1
  C  C1  1  0.00000000  0.00000000  0.09692600  1
  C  C2  1  0.87178700  0.62821300  0.11197400  1
  C  C3  1  0.37178700  0.87178700  0.11197400  1
  C  C4  1  0.62821300  0.12821300  0.11197400  1
  C  C5  1  0.12821300  0.37178700  0.11197400  1
  C  C6  1  0.09807200  0.59807200  0.69433000  1
  C  C7  1  0.24912300  0.60837600  0.50914900  1
  C  C8  1  0.23733400  0.73733400  0.73077200  1
  C  C9  1  0.10837600  0.74912300  0.50914900  1
  C  C10  1  0.60837600  0.75087700  0.50914900  1
  C  C11  1  0.73733400  0.76266600  0.73077200  1
  C  C12  1  0.74912300  0.89162400  0.50914900  1
  C  C13  1  0.59807200  0.90192800  0.69433000  1
  C  C14  1  0.40192800  0.09807200  0.69433000  1
  C  C15  1  0.25087700  0.10837600  0.50914900  1
  C  C16  1  0.26266600  0.23733400  0.73077200  1
  C  C17  1  0.39162400  0.24912300  0.50914900  1
  C  C18  1  0.89162400  0.25087700  0.50914900  1
  C  C19  1  0.76266600  0.26266600  0.73077200  1
  C  C20  1  0.75087700  0.39162400  0.50914900  1
  C  C21  1  0.90192800  0.40192800  0.69433000  1
  Ni  Ni22  1  0.17375700  0.67375700  0.61051300  1
  Ni  Ni23  1  0.67375700  0.82624300  0.61051300  1
  Ni  Ni24  1  0.32624300  0.17375700  0.61051300  1
  Ni  Ni25  1  0.82624300  0.32624300  0.61051300  1
  Cu  Cu26  1  0.50000000  0.50000000  0.37909500  1
  Cu  Cu27  1  0.00000000  0.50000000  0.00434500  1
  Cu  Cu28  1  0.71513300  0.57593600  0.99637800  1
  Cu  Cu29  1  0.87310600  0.62689400  0.36894700  1
  Cu  Cu30  1  0.42406400  0.71513300  0.99637800  1
  Cu  Cu31  1  0.92406400  0.78486700  0.99637800  1
  Cu  Cu32  1  0.37310600  0.87310600  0.36894700  1
  Cu  Cu33  1  0.21513300  0.92406400  0.99637800  1
  Cu  Cu34  1  0.00000000  0.00000000  0.37909500  1
  Cu  Cu35  1  0.50000000  0.00000000  0.00434500  1
  Cu  Cu36  1  0.78486700  0.07593600  0.99637800  1
  Cu  Cu37  1  0.62689400  0.12689400  0.36894700  1
  Cu  Cu38  1  0.07593600  0.21513300  0.99637800  1
  Cu  Cu39  1  0.57593600  0.28486700  0.99637800  1
  Cu  Cu40  1  0.12689400  0.37310600  0.36894700  1
  Cu  Cu41  1  0.28486700  0.42406400  0.99637800  1
