# generated using pymatgen
data_Cu2NiC6
_symmetry_space_group_name_H-M   'P 1'
_cell_length_a   13.76119932
_cell_length_b   13.76119932
_cell_length_c   7.22463000
_cell_angle_alpha   90.00000000
_cell_angle_beta   90.00000000
_cell_angle_gamma   119.99999673
_symmetry_Int_Tables_number   1
_chemical_formula_structural   Cu2NiC6
_chemical_formula_sum   'Cu6 Ni3 C18'
_cell_volume   1184.83759720
_cell_formula_units_Z   3
loop_
 _symmetry_equiv_pos_site_id
 _symmetry_equiv_pos_as_xyz
  1  'x, y, z'
loop_
 _atom_site_type_symbol
 _atom_site_label
 _atom_site_symmetry_multiplicity
 _atom_site_fract_x
 _atom_site_fract_y
 _atom_site_fract_z
 _atom_site_occupancy
  Ni  Ni0  1  0.33333300  0.66666700  0.49705400  1
  Ni  Ni1  1  0.00000000  0.00000000  0.00000000  1
  Ni  Ni2  1  0.66666700  0.33333300  0.50294600  1
  Cu  Cu3  1  0.00000000  0.65034500  0.00000000  1
  Cu  Cu4  1  0.00000000  0.31613300  0.50000000  1
  Cu  Cu5  1  0.34965500  0.34965500  0.00000000  1
  Cu  Cu6  1  0.31613300  0.00000000  0.50000000  1
  Cu  Cu7  1  0.68386700  0.68386700  0.50000000  1
  Cu  Cu8  1  0.65034500  0.00000000  0.00000000  1
  C  C9  1  0.09869500  0.86934100  0.74907000  1
  C  C10  1  0.21996300  0.78353500  0.24823100  1
  C  C11  1  0.10460300  0.53666900  0.74914100  1
  C  C12  1  0.43206600  0.89539700  0.74914100  1
  C  C13  1  0.21646500  0.43642900  0.24823100  1
  C  C14  1  0.13065900  0.22935400  0.74907000  1
  C  C15  1  0.56357100  0.78003700  0.24823100  1
  C  C16  1  0.22935400  0.13065900  0.25093000  1
  C  C17  1  0.46333100  0.56793400  0.74914100  1
  C  C18  1  0.77064600  0.90130500  0.74907000  1
  C  C19  1  0.43642900  0.21646500  0.75176900  1
  C  C20  1  0.56793400  0.46333100  0.25085900  1
  C  C21  1  0.53666900  0.10460300  0.25085900  1
  C  C22  1  0.78003700  0.56357100  0.75176900  1
  C  C23  1  0.90130500  0.77064600  0.25093000  1
  C  C24  1  0.78353500  0.21996300  0.75176900  1
  C  C25  1  0.89539700  0.43206600  0.25085900  1
  C  C26  1  0.86934100  0.09869500  0.25093000  1
