# generated using pymatgen
data_Cu2Ni3C23
_symmetry_space_group_name_H-M   'P 1'
_cell_length_a   5.90769900
_cell_length_b   5.92176247
_cell_length_c   9.58969289
_cell_angle_alpha   90.80305608
_cell_angle_beta   90.14097378
_cell_angle_gamma   119.85877982
_symmetry_Int_Tables_number   1
_chemical_formula_structural   Cu2Ni3C23
_chemical_formula_sum   'Cu2 Ni3 C23'
_cell_volume   290.90591033
_cell_formula_units_Z   1
loop_
 _symmetry_equiv_pos_site_id
 _symmetry_equiv_pos_as_xyz
  1  'x, y, z'
loop_
 _atom_site_type_symbol
 _atom_site_label
 _atom_site_symmetry_multiplicity
 _atom_site_fract_x
 _atom_site_fract_y
 _atom_site_fract_z
 _atom_site_occupancy
  C  C0  1  0.66683900  0.33896900  0.10624100  1
  C  C1  1  0.00032800  0.99634600  0.00346200  1
  C  C2  1  0.99809700  0.00226100  0.50389300  1
  C  C3  1  0.34045800  0.67841600  0.60550300  1
  Ni  Ni4  1  0.65720800  0.83938000  0.28593300  1
  Ni  Ni5  1  0.83089500  0.66146200  0.78792700  1
  Ni  Ni6  1  0.15965800  0.82460400  0.28949000  1
  Cu  Cu7  1  0.66748800  0.33223100  0.51566300  1
  Cu  Cu8  1  0.33077100  0.65616500  0.01580700  1
  C  C9  1  0.83407200  0.17167900  0.78553200  1
  C  C10  1  0.33902200  0.17004100  0.78568300  1
  C  C11  1  0.17264200  0.33759000  0.28661300  1
  C  C12  1  0.83420400  0.16306300  0.39861800  1
  C  C13  1  0.52398600  0.04534600  0.65831400  1
  C  C14  1  0.68005700  0.35680800  0.89710900  1
  C  C15  1  0.99086400  0.98134300  0.68978300  1
  C  C16  1  0.99421900  0.99231000  0.18931400  1
  C  C17  1  0.32584300  0.14400000  0.39745900  1
  C  C18  1  0.96290500  0.49697300  0.66115900  1
  C  C19  1  0.53382000  0.49529500  0.66166700  1
  C  C20  1  0.16045600  0.31957800  0.90192900  1
  C  C21  1  0.82721400  0.67297800  0.39304500  1
  C  C22  1  0.47918600  0.51834600  0.15988900  1
  C  C23  1  0.04148400  0.53761400  0.16208100  1
  C  C24  1  0.33780100  0.67232800  0.39899300  1
  C  C25  1  0.66876400  0.81600000  0.89491500  1
  C  C26  1  0.49229600  0.96168900  0.16155500  1
  C  C27  1  0.14972100  0.81718700  0.89458200  1
