# generated using pymatgen
data_CuNi3C20
_symmetry_space_group_name_H-M   'P 1'
_cell_length_a   5.89183600
_cell_length_b   4.89357700
_cell_length_c   10.02238406
_cell_angle_alpha   89.50167903
_cell_angle_beta   90.00000000
_cell_angle_gamma   90.00000000
_symmetry_Int_Tables_number   1
_chemical_formula_structural   CuNi3C20
_chemical_formula_sum   'Cu1 Ni3 C20'
_cell_volume   288.95598290
_cell_formula_units_Z   1
loop_
 _symmetry_equiv_pos_site_id
 _symmetry_equiv_pos_as_xyz
  1  'x, y, z'
loop_
 _atom_site_type_symbol
 _atom_site_label
 _atom_site_symmetry_multiplicity
 _atom_site_fract_x
 _atom_site_fract_y
 _atom_site_fract_z
 _atom_site_occupancy
  Ni  Ni0  1  0.00000000  0.47969500  0.77046700  1
  Ni  Ni1  1  0.50000000  0.54410900  0.22297000  1
  Ni  Ni2  1  0.50000000  0.97684600  0.73112000  1
  Cu  Cu3  1  0.00000000  0.03679800  0.27649800  1
  C  C4  1  0.50000000  0.10725600  0.40063900  1
  C  C5  1  0.50000000  0.40926900  0.90601400  1
  C  C6  1  0.00000000  0.56042100  0.09482500  1
  C  C7  1  0.00000000  0.91435000  0.59581500  1
  C  C8  1  0.50000000  0.14774600  0.55095300  1
  C  C9  1  0.30073900  0.26543100  0.32833100  1
  C  C10  1  0.69926100  0.26543100  0.32833100  1
  C  C11  1  0.00000000  0.22002600  0.62343400  1
  C  C12  1  0.00000000  0.25545100  0.11087400  1
  C  C13  1  0.29662100  0.26313200  0.83243000  1
  C  C14  1  0.70337900  0.26313200  0.83243000  1
  C  C15  1  0.50000000  0.33769400  0.05612200  1
  C  C16  1  0.00000000  0.65188700  0.94926500  1
  C  C17  1  0.79088100  0.70228700  0.17024800  1
  C  C18  1  0.20911900  0.70228700  0.17024800  1
  C  C19  1  0.50000000  0.71648800  0.88289500  1
  C  C20  1  0.50000000  0.79955200  0.37075600  1
  C  C21  1  0.79641500  0.76663700  0.67279400  1
  C  C22  1  0.20358500  0.76663700  0.67279400  1
  C  C23  1  0.00000000  0.84743700  0.44974300  1
