# generated using pymatgen
data_Cu7NiC40
_symmetry_space_group_name_H-M   'P 1'
_cell_length_a   5.23980900
_cell_length_b   9.01622710
_cell_length_c   11.11687892
_cell_angle_alpha   107.81170599
_cell_angle_beta   90.75999721
_cell_angle_gamma   90.81095545
_symmetry_Int_Tables_number   1
_chemical_formula_structural   Cu7NiC40
_chemical_formula_sum   'Cu7 Ni1 C40'
_cell_volume   499.88829337
_cell_formula_units_Z   1
loop_
 _symmetry_equiv_pos_site_id
 _symmetry_equiv_pos_as_xyz
  1  'x, y, z'
loop_
 _atom_site_type_symbol
 _atom_site_label
 _atom_site_symmetry_multiplicity
 _atom_site_fract_x
 _atom_site_fract_y
 _atom_site_fract_z
 _atom_site_occupancy
  C  C0  1  0.84835700  0.38140500  0.16359600  1
  C  C1  1  0.15326900  0.11766400  0.33804300  1
  C  C2  1  0.34624800  0.88272900  0.16064900  1
  C  C3  1  0.65273400  0.61654800  0.34034700  1
  C  C4  1  0.34653800  0.38202300  0.66105400  1
  C  C5  1  0.65349100  0.11805300  0.83801600  1
  C  C6  1  0.84606500  0.88198300  0.66113000  1
  C  C7  1  0.15324600  0.61662200  0.83718400  1
  Ni  Ni8  1  0.82958800  0.69803300  0.11657500  1
  Cu  Cu9  1  0.33604300  0.20051100  0.11677700  1
  Cu  Cu10  1  0.66272500  0.30013400  0.38231400  1
  Cu  Cu11  1  0.83676300  0.20136100  0.61732900  1
  Cu  Cu12  1  0.16895300  0.80290600  0.38105800  1
  Cu  Cu13  1  0.32782900  0.70133700  0.61612300  1
  Cu  Cu14  1  0.16322300  0.30012800  0.88247900  1
  Cu  Cu15  1  0.66226600  0.79969000  0.87852600  1
  C  C16  1  0.82783700  0.03721400  0.12871200  1
  C  C17  1  0.33099200  0.53520300  0.13128400  1
  C  C18  1  0.17036900  0.46405200  0.37203700  1
  C  C19  1  0.33073100  0.03697700  0.62985500  1
  C  C20  1  0.67309700  0.96364600  0.37186400  1
  C  C21  1  0.83021200  0.53651200  0.62957300  1
  C  C22  1  0.67030300  0.46329100  0.86871900  1
  C  C23  1  0.16986200  0.96424600  0.87049500  1
  C  C24  1  0.08842100  0.03249500  0.14763100  1
  C  C25  1  0.70413800  0.17970900  0.15821200  1
  C  C26  1  0.18163400  0.39732400  0.08854300  1
  C  C27  1  0.59112700  0.52704200  0.14907300  1
  C  C28  1  0.81834500  0.10281700  0.41149700  1
  C  C29  1  0.29376000  0.32121500  0.34440700  1
  C  C30  1  0.21249300  0.67912300  0.15989700  1
  C  C31  1  0.68058800  0.89932800  0.08600500  1
  C  C32  1  0.91024900  0.46788800  0.35379800  1
  C  C33  1  0.59116600  0.03302400  0.64737100  1
  C  C34  1  0.31714000  0.60247400  0.41236500  1
  C  C35  1  0.79626400  0.82087000  0.34517200  1
  C  C36  1  0.20510700  0.17857300  0.65668300  1
  C  C37  1  0.68372900  0.39724100  0.58861200  1
  C  C38  1  0.41271400  0.96746400  0.35334600  1
  C  C39  1  0.09126400  0.53075600  0.64687900  1
  C  C40  1  0.31731800  0.10280200  0.91103000  1
  C  C41  1  0.79509200  0.32143700  0.84265900  1
  C  C42  1  0.70521700  0.67845300  0.65806500  1
  C  C43  1  0.18534800  0.89764300  0.58907000  1
  C  C44  1  0.40971800  0.46713600  0.85190700  1
  C  C45  1  0.81664000  0.60232200  0.90857500  1
  C  C46  1  0.29229200  0.82141900  0.84338300  1
  C  C47  1  0.90949300  0.96917600  0.85208100  1
