# generated using pymatgen
data_Cu3Ni3C22
_symmetry_space_group_name_H-M   'P 1'
_cell_length_a   5.87388646
_cell_length_b   5.87388646
_cell_length_c   9.41674710
_cell_angle_alpha   88.79136238
_cell_angle_beta   88.79136238
_cell_angle_gamma   59.11995164
_symmetry_Int_Tables_number   1
_chemical_formula_structural   Cu3Ni3C22
_chemical_formula_sum   'Cu3 Ni3 C22'
_cell_volume   278.76284473
_cell_formula_units_Z   1
loop_
 _symmetry_equiv_pos_site_id
 _symmetry_equiv_pos_as_xyz
  1  'x, y, z'
loop_
 _atom_site_type_symbol
 _atom_site_label
 _atom_site_symmetry_multiplicity
 _atom_site_fract_x
 _atom_site_fract_y
 _atom_site_fract_z
 _atom_site_occupancy
  C  C0  1  0.66802900  0.66802900  0.09812200  1
  C  C1  1  0.99919600  0.99919600  0.01132100  1
  C  C2  1  0.00293900  0.00293900  0.50348400  1
  C  C3  1  0.32901300  0.32901300  0.59839200  1
  Ni  Ni4  1  0.34040800  0.83496800  0.78352500  1
  Ni  Ni5  1  0.83496800  0.34040800  0.78352500  1
  Ni  Ni6  1  0.17577500  0.17577500  0.28047700  1
  C  C7  1  0.66940300  0.66940300  0.50201600  1
  C  C8  1  0.35493200  0.35493200  0.01831200  1
  Cu  Cu9  1  0.82851900  0.82851900  0.78625000  1
  Cu  Cu10  1  0.16883400  0.66173700  0.28919300  1
  Cu  Cu11  1  0.66173700  0.16883400  0.28919300  1
  C  C12  1  0.35191100  0.83510600  0.40855400  1
  C  C13  1  0.51907200  0.51907200  0.66441400  1
  C  C14  1  0.65612800  0.65612800  0.89176300  1
  C  C15  1  0.00506400  0.00506400  0.69287000  1
  C  C16  1  0.00930900  0.00930900  0.19930500  1
  C  C17  1  0.83510600  0.35191100  0.40855400  1
  C  C18  1  0.50479300  0.95561000  0.65509100  1
  C  C19  1  0.95561000  0.50479300  0.65509100  1
  C  C20  1  0.15998500  0.15998500  0.89519900  1
  C  C21  1  0.82576000  0.82576000  0.42235900  1
  C  C22  1  0.04159000  0.46737700  0.15117100  1
  C  C23  1  0.46737700  0.04159000  0.15117100  1
  C  C24  1  0.32542300  0.32542300  0.39205000  1
  C  C25  1  0.17596300  0.65433300  0.90960100  1
  C  C26  1  0.48154900  0.48154900  0.14143400  1
  C  C27  1  0.65433300  0.17596300  0.90960100  1
