# generated using pymatgen
data_Cu2Ni8C11
_symmetry_space_group_name_H-M   'P 1'
_cell_length_a   27.69944400
_cell_length_b   5.45637300
_cell_length_c   6.22066706
_cell_angle_alpha   59.99643205
_cell_angle_beta   90.00000000
_cell_angle_gamma   90.00000000
_symmetry_Int_Tables_number   1
_chemical_formula_structural   Cu2Ni8C11
_chemical_formula_sum   'Cu8 Ni32 C44'
_cell_volume   814.19246123
_cell_formula_units_Z   4
loop_
 _symmetry_equiv_pos_site_id
 _symmetry_equiv_pos_as_xyz
  1  'x, y, z'
loop_
 _atom_site_type_symbol
 _atom_site_label
 _atom_site_symmetry_multiplicity
 _atom_site_fract_x
 _atom_site_fract_y
 _atom_site_fract_z
 _atom_site_occupancy
  C  C0  1  0.62589100  0.30021100  0.22019000  1
  C  C1  1  0.87410900  0.30021100  0.72019000  1
  C  C2  1  0.37410900  0.69978900  0.77981000  1
  C  C3  1  0.12589100  0.69978900  0.27981000  1
  Ni  Ni4  1  0.63066300  0.24494800  0.79257100  1
  Ni  Ni5  1  0.86933700  0.24494800  0.29257100  1
  Ni  Ni6  1  0.36933700  0.75505200  0.20742900  1
  Ni  Ni7  1  0.13066300  0.75505200  0.70742900  1
  Ni  Ni8  1  0.68201200  0.32544300  0.84681500  1
  Ni  Ni9  1  0.81798800  0.32544300  0.34681500  1
  Ni  Ni10  1  0.31798800  0.67455700  0.15318500  1
  Ni  Ni11  1  0.18201200  0.67455700  0.65318500  1
  Ni  Ni12  1  0.55234300  0.68535300  0.88782300  1
  Ni  Ni13  1  0.94765700  0.68535300  0.38782300  1
  Ni  Ni14  1  0.44765700  0.31464700  0.11217700  1
  Ni  Ni15  1  0.05234300  0.31464700  0.61217700  1
  Ni  Ni16  1  0.60513300  0.75195000  0.76204400  1
  Ni  Ni17  1  0.89486700  0.75195000  0.26204400  1
  Ni  Ni18  1  0.39486700  0.24805000  0.23795600  1
  Ni  Ni19  1  0.10513300  0.24805000  0.73795600  1
  Ni  Ni20  1  0.58574700  0.58306400  0.43342300  1
  Ni  Ni21  1  0.91425300  0.58306400  0.93342300  1
  Ni  Ni22  1  0.41425300  0.41693600  0.56657700  1
  Ni  Ni23  1  0.08574700  0.41693600  0.06657700  1
  Ni  Ni24  1  0.55764700  0.29463400  0.56819900  1
  Ni  Ni25  1  0.94235300  0.29463400  0.06819900  1
  Ni  Ni26  1  0.44235300  0.70536600  0.43180100  1
  Ni  Ni27  1  0.05764700  0.70536600  0.93180100  1
  Ni  Ni28  1  0.71269000  0.60533400  0.17113200  1
  Ni  Ni29  1  0.78731000  0.60533400  0.67113200  1
  Ni  Ni30  1  0.28731000  0.39466600  0.82886800  1
  Ni  Ni31  1  0.21269000  0.39466600  0.32886800  1
  Ni  Ni32  1  0.66835700  0.81940400  0.07907600  1
  Ni  Ni33  1  0.83164300  0.81940400  0.57907600  1
  Ni  Ni34  1  0.33164300  0.18059600  0.92092400  1
  Ni  Ni35  1  0.16835700  0.18059600  0.42092400  1
  Cu  Cu36  1  0.52699500  0.99305300  0.26427700  1
  Cu  Cu37  1  0.97300500  0.99305300  0.76427700  1
  Cu  Cu38  1  0.47300500  0.00694700  0.73572300  1
  Cu  Cu39  1  0.02699500  0.00694700  0.23572300  1
  Cu  Cu40  1  0.70512700  0.87779500  0.51870700  1
  Cu  Cu41  1  0.79487300  0.87779500  0.01870700  1
  Cu  Cu42  1  0.29487300  0.12220500  0.48129300  1
  Cu  Cu43  1  0.20512700  0.12220500  0.98129300  1
  C  C44  1  0.57327200  0.95020100  0.30133600  1
  C  C45  1  0.92672800  0.95020100  0.80133600  1
  C  C46  1  0.42672800  0.04979900  0.69866400  1
  C  C47  1  0.07327200  0.04979900  0.19866400  1
  C  C48  1  0.51024600  0.22728500  0.22079000  1
  C  C49  1  0.98975400  0.22728500  0.72079000  1
  C  C50  1  0.48975400  0.77271500  0.77921000  1
  C  C51  1  0.01024600  0.77271500  0.27921000  1
  C  C52  1  0.50161100  0.79791200  0.27577400  1
  C  C53  1  0.99838900  0.79791200  0.77577400  1
  C  C54  1  0.49838900  0.20208800  0.72422600  1
  C  C55  1  0.00161100  0.20208800  0.22422600  1
  C  C56  1  0.65928500  0.92377600  0.52983000  1
  C  C57  1  0.84071500  0.92377600  0.02983000  1
  C  C58  1  0.34071500  0.07622400  0.47017000  1
  C  C59  1  0.15928500  0.07622400  0.97017000  1
  C  C60  1  0.72175200  0.63745700  0.67528400  1
  C  C61  1  0.77824800  0.63745700  0.17528400  1
  C  C62  1  0.27824800  0.36254300  0.32471600  1
  C  C63  1  0.22175200  0.36254300  0.82471600  1
  C  C64  1  0.73058100  0.06660700  0.35704800  1
  C  C65  1  0.76941900  0.06660700  0.85704800  1
  C  C66  1  0.26941900  0.93339300  0.64295200  1
  C  C67  1  0.23058100  0.93339300  0.14295200  1
  C  C68  1  0.65370000  0.20120800  0.92923200  1
  C  C69  1  0.84630000  0.20120800  0.42923200  1
  C  C70  1  0.34630000  0.79879200  0.07076800  1
  C  C71  1  0.15370000  0.79879200  0.57076800  1
  C  C72  1  0.58741900  0.65472000  0.91955100  1
  C  C73  1  0.91258100  0.65472000  0.41955100  1
  C  C74  1  0.41258100  0.34528000  0.08044900  1
  C  C75  1  0.08741900  0.34528000  0.58044900  1
  C  C76  1  0.59045900  0.37409500  0.51268600  1
  C  C77  1  0.90954100  0.37409500  0.01268600  1
  C  C78  1  0.40954100  0.62590500  0.48731400  1
  C  C79  1  0.09045900  0.62590500  0.98731400  1
  C  C80  1  0.67707400  0.61685200  0.17745200  1
  C  C81  1  0.82292600  0.61685200  0.67745200  1
  C  C82  1  0.32292600  0.38314800  0.82254800  1
  C  C83  1  0.17707400  0.38314800  0.32254800  1
