# generated using pymatgen
data_CuNi3C20
_symmetry_space_group_name_H-M   'P 1'
_cell_length_a   5.24173600
_cell_length_b   6.05099112
_cell_length_c   16.29698917
_cell_angle_alpha   81.91789433
_cell_angle_beta   89.09190572
_cell_angle_gamma   89.26555884
_symmetry_Int_Tables_number   1
_chemical_formula_structural   CuNi3C20
_chemical_formula_sum   'Cu2 Ni6 C40'
_cell_volume   511.67534515
_cell_formula_units_Z   2
loop_
 _symmetry_equiv_pos_site_id
 _symmetry_equiv_pos_as_xyz
  1  'x, y, z'
loop_
 _atom_site_type_symbol
 _atom_site_label
 _atom_site_symmetry_multiplicity
 _atom_site_fract_x
 _atom_site_fract_y
 _atom_site_fract_z
 _atom_site_occupancy
  C  C0  1  0.59695500  0.93941300  0.26357500  1
  C  C1  1  0.90281500  0.31064600  0.98418600  1
  C  C2  1  0.40304500  0.06058700  0.73642500  1
  C  C3  1  0.09836500  0.18909200  0.51572300  1
  C  C4  1  0.40247300  0.56175800  0.23263300  1
  C  C5  1  0.09718500  0.68935400  0.01581400  1
  C  C6  1  0.59752700  0.43824200  0.76736700  1
  C  C7  1  0.90163500  0.81090800  0.48427700  1
  Ni  Ni8  1  0.91932100  0.89897600  0.66513100  1
  Ni  Ni9  1  0.08067900  0.10102400  0.33486900  1
  Ni  Ni10  1  0.91746100  0.40105700  0.16494200  1
  Ni  Ni11  1  0.58052900  0.35016400  0.58518500  1
  Ni  Ni12  1  0.41947100  0.64983600  0.41481500  1
  Ni  Ni13  1  0.08253900  0.59894300  0.83505800  1
  Cu  Cu14  1  0.41399400  0.14620800  0.91772600  1
  Cu  Cu15  1  0.58600600  0.85379200  0.08227400  1
  C  C16  1  0.07803100  0.91268800  0.17102000  1
  C  C17  1  0.58067400  0.16046200  0.42250300  1
  C  C18  1  0.41814300  0.33881100  0.07671800  1
  C  C19  1  0.92196900  0.08731200  0.82898000  1
  C  C20  1  0.58185700  0.66118900  0.92328200  1
  C  C21  1  0.08095800  0.40935100  0.67321300  1
  C  C22  1  0.91904200  0.59064900  0.32678700  1
  C  C23  1  0.41932600  0.83953800  0.57749700  1
  C  C24  1  0.33748900  0.88646100  0.18165900  1
  C  C25  1  0.93329000  0.04481300  0.21912700  1
  C  C26  1  0.46402300  0.04442800  0.36534300  1
  C  C27  1  0.04906300  0.20021400  0.88543700  1
  C  C28  1  0.53597700  0.95557200  0.63465700  1
  C  C29  1  0.56661000  0.20582600  0.02905100  1
  C  C30  1  0.06671000  0.95518700  0.78087300  1
  C  C31  1  0.84025100  0.13850600  0.43639500  1
  C  C32  1  0.15835500  0.36250400  0.06372000  1
  C  C33  1  0.66251100  0.11353900  0.81834100  1
  C  C34  1  0.43097000  0.29420400  0.46884900  1
  C  C35  1  0.96384300  0.29386900  0.61613800  1
  C  C36  1  0.53614100  0.45178400  0.13397500  1
  C  C37  1  0.06899700  0.45697000  0.28046400  1
  C  C38  1  0.84164500  0.63749600  0.93628000  1
  C  C39  1  0.34071200  0.38736500  0.68710100  1
  C  C40  1  0.65928800  0.61263500  0.31289900  1
  C  C41  1  0.43339000  0.79417400  0.97094900  1
  C  C42  1  0.93100300  0.54303000  0.71953600  1
  C  C43  1  0.95093700  0.79978600  0.11456300  1
  C  C44  1  0.46385900  0.54821600  0.86602500  1
  C  C45  1  0.03615700  0.70613100  0.38386200  1
  C  C46  1  0.56903000  0.70579600  0.53115100  1
  C  C47  1  0.15974900  0.86149400  0.56360500  1
