# generated using pymatgen
data_Cu3NiC16
_symmetry_space_group_name_H-M   'P 1'
_cell_length_a   7.12936357
_cell_length_b   10.22223545
_cell_length_c   7.30299899
_cell_angle_alpha   69.53919482
_cell_angle_beta   91.19287127
_cell_angle_gamma   70.04258308
_symmetry_Int_Tables_number   1
_chemical_formula_structural   Cu3NiC16
_chemical_formula_sum   'Cu6 Ni2 C32'
_cell_volume   462.73303946
_cell_formula_units_Z   2
loop_
 _symmetry_equiv_pos_site_id
 _symmetry_equiv_pos_as_xyz
  1  'x, y, z'
loop_
 _atom_site_type_symbol
 _atom_site_label
 _atom_site_symmetry_multiplicity
 _atom_site_fract_x
 _atom_site_fract_y
 _atom_site_fract_z
 _atom_site_occupancy
  C  C0  1  0.14353000  0.71199300  0.14408800  1
  C  C1  1  0.64352900  0.71198900  0.64408800  1
  C  C2  1  0.83254500  0.83444100  0.83273800  1
  C  C3  1  0.33255800  0.83442200  0.33273700  1
  C  C4  1  0.57852100  0.34230900  0.07886100  1
  C  C5  1  0.07850600  0.34236400  0.57881900  1
  C  C6  1  0.40237700  0.19499200  0.90256800  1
  C  C7  1  0.90234400  0.19499400  0.40255600  1
  Ni  Ni8  1  0.44822600  0.10343500  0.44817500  1
  Ni  Ni9  1  0.94852800  0.10385100  0.94807000  1
  Cu  Cu10  1  0.19312300  0.61345600  0.69333100  1
  Cu  Cu11  1  0.69312900  0.61344700  0.19335800  1
  Cu  Cu12  1  0.28364300  0.93230900  0.78374000  1
  Cu  Cu13  1  0.05016400  0.39984200  0.05030400  1
  Cu  Cu14  1  0.55015800  0.39979700  0.55030000  1
  Cu  Cu15  1  0.78366300  0.93242900  0.28360300  1
  C  C16  1  0.31357100  0.26807400  0.15339500  1
  C  C17  1  0.81373400  0.26816100  0.65330700  1
  C  C18  1  0.41851500  0.26826000  0.57825200  1
  C  C19  1  0.91847200  0.26828000  0.07825600  1
  C  C20  1  0.15166200  0.58066700  0.96510600  1
  C  C21  1  0.65165300  0.58067200  0.46510600  1
  C  C22  1  0.26747200  0.57980100  0.45471000  1
  C  C23  1  0.76745000  0.57980800  0.95471200  1
  C  C24  1  0.04774000  0.89928900  0.86098300  1
  C  C25  1  0.54774000  0.89929000  0.36098500  1
  C  C26  1  0.05272900  0.89865000  0.23956500  1
  C  C27  1  0.55273800  0.89865800  0.73950900  1
  C  C28  1  0.08906300  0.43396500  0.77414300  1
  C  C29  1  0.58911400  0.43393700  0.27412700  1
  C  C30  1  0.47810800  0.43408900  0.79208900  1
  C  C31  1  0.97809600  0.43409300  0.29208700  1
  C  C32  1  0.25106600  0.07341400  0.89817700  1
  C  C33  1  0.75100700  0.07342400  0.39817500  1
  C  C34  1  0.67606400  0.07338000  0.02820800  1
  C  C35  1  0.17598000  0.07327700  0.52826800  1
  C  C36  1  0.93084700  0.74937500  0.57578400  1
  C  C37  1  0.43078000  0.74937700  0.07579700  1
  C  C38  1  0.32040200  0.74907700  0.67542700  1
  C  C39  1  0.82037400  0.74907700  0.17541400  1
