# generated using pymatgen
data_Cu9(Ni3C37)2
_symmetry_space_group_name_H-M   'P 1'
_cell_length_a   13.57069336
_cell_length_b   13.62860094
_cell_length_c   19.05517363
_cell_angle_alpha   70.79469690
_cell_angle_beta   72.69936115
_cell_angle_gamma   62.17150215
_symmetry_Int_Tables_number   1
_chemical_formula_structural   Cu9(Ni3C37)2
_chemical_formula_sum   'Cu18 Ni12 C148'
_cell_volume   2899.23545150
_cell_formula_units_Z   2
loop_
 _symmetry_equiv_pos_site_id
 _symmetry_equiv_pos_as_xyz
  1  'x, y, z'
loop_
 _atom_site_type_symbol
 _atom_site_label
 _atom_site_symmetry_multiplicity
 _atom_site_fract_x
 _atom_site_fract_y
 _atom_site_fract_z
 _atom_site_occupancy
  C  C0  1  0.00000000  0.50000000  0.50000000  1
  C  C1  1  0.99253025  0.31665424  0.66059316  1
  C  C2  1  0.00746975  0.68334576  0.33940684  1
  C  C3  1  0.97192251  0.17858630  0.83611322  1
  C  C4  1  0.02807749  0.82141370  0.16388678  1
  C  C5  1  0.00000000  0.00000000  0.00000000  1
  C  C6  1  0.53180842  0.09165583  0.72842553  1
  C  C7  1  0.46819158  0.90834417  0.27157447  1
  C  C8  1  0.35289469  0.42479063  0.77153011  1
  C  C9  1  0.64710531  0.57520937  0.22846989  1
  C  C10  1  0.05245865  0.31525947  0.90666890  1
  C  C11  1  0.94754135  0.68474053  0.09333110  1
  C  C12  1  0.02080348  0.22601934  0.13981742  1
  C  C13  1  0.97919652  0.77398066  0.86018258  1
  C  C14  1  0.91456307  0.22273250  0.10424446  1
  C  C15  1  0.08543693  0.77726750  0.89575554  1
  C  C16  1  0.05453250  0.11256772  0.09699524  1
  C  C17  1  0.94546750  0.88743228  0.90300476  1
  C  C18  1  0.09323083  0.34073472  0.07799128  1
  C  C19  1  0.90676917  0.65926528  0.92200872  1
  C  C20  1  0.18285875  0.31033791  0.99108688  1
  C  C21  1  0.81714125  0.68966209  0.00891312  1
  C  C22  1  0.05073596  0.43084898  0.99100810  1
  C  C23  1  0.94926404  0.56915102  0.00899190  1
  C  C24  1  0.75222478  0.00897380  0.93113915  1
  C  C25  1  0.24777522  0.99102620  0.06886085  1
  C  C26  1  0.59247099  0.30295073  0.01186332  1
  C  C27  1  0.40752901  0.69704927  0.98813668  1
  C  C28  1  0.74021341  0.22480100  0.01799714  1
  C  C29  1  0.25978659  0.77519900  0.98200286  1
  C  C30  1  0.69677223  0.30471575  0.92872763  1
  C  C31  1  0.30322777  0.69528425  0.07127237  1
  C  C32  1  0.49881498  0.20719014  0.01920142  1
  C  C33  1  0.50118502  0.79280986  0.98079858  1
  C  C34  1  0.53834950  0.14455471  0.94152851  1
  C  C35  1  0.46165050  0.85544529  0.05847149  1
  C  C36  1  0.57379915  0.05704755  0.03230978  1
  C  C37  1  0.42620085  0.94295245  0.96769022  1
  C  C38  1  0.88939686  0.04415696  0.75086654  1
  C  C39  1  0.11060314  0.95584304  0.24913346  1
  C  C40  1  0.17575855  0.92643937  0.59193697  1
  C  C41  1  0.82424145  0.07356063  0.40806303  1
  C  C42  1  0.11321416  0.07702435  0.58420515  1
  C  C43  1  0.88678584  0.92297565  0.41579485  1
  C  C44  1  0.19175017  0.98252198  0.65843547  1
  C  C45  1  0.80824983  0.01747802  0.34156453  1
  C  C46  1  0.06901800  0.84430183  0.63059514  1
  C  C47  1  0.93098200  0.15569817  0.36940486  1
  C  C48  1  0.00300083  0.83208471  0.72597943  1
  C  C49  1  0.99699917  0.16791529  0.27402057  1
  C  C50  1  0.92090627  0.92623250  0.65282893  1
  C  C51  1  0.07909373  0.07376750  0.34717107  1
  C  C52  1  0.70253954  0.44566259  0.75135693  1
  C  C53  1  0.29746046  0.55433741  0.24864307  1
  C  C54  1  0.73811657  0.60228978  0.88890046  1
  C  C55  1  0.26188343  0.39771022  0.11109954  1
  C  C56  1  0.82385872  0.45263686  0.90270413  1
  C  C57  1  0.17614128  0.54736314  0.09729587  1
  C  C58  1  0.86139127  0.54919286  0.82083340  1
  C  C59  1  0.13860873  0.45080714  0.17916660  1
  C  C60  1  0.58607122  0.65972748  0.86121956  1
  C  C61  1  0.41392878  0.34027252  0.13878044  1
  C  C62  1  0.57684783  0.65769335  0.77129958  1
  C  C63  1  0.42315217  0.34230665  0.22870042  1
  C  C64  1  0.54315873  0.55907904  0.85350946  1
  C  C65  1  0.45684127  0.44092096  0.14649054  1
  C  C66  1  0.25985420  0.18981378  0.58342253  1
  C  C67  1  0.74014580  0.81018622  0.41657747  1
  C  C68  1  0.33173321  0.27004789  0.35012054  1
  C  C69  1  0.66826679  0.72995211  0.64987946  1
  C  C70  1  0.20169483  0.25451505  0.38828517  1
  C  C71  1  0.79830517  0.74548495  0.61171483  1
  C  C72  1  0.21157867  0.38134687  0.38895438  1
  C  C73  1  0.78842133  0.61865313  0.61104562  1
  C  C74  1  0.46129570  0.16947062  0.40929582  1
  C  C75  1  0.53870430  0.83052938  0.59070418  1
  C  C76  1  0.45132108  0.19611066  0.49696749  1
  C  C77  1  0.54867892  0.80388934  0.50303251  1
  C  C78  1  0.43499615  0.07426550  0.49402227  1
  C  C79  1  0.56500385  0.92573450  0.50597773  1
  C  C80  1  0.68394263  0.50555344  0.58950664  1
  C  C81  1  0.31605737  0.49444656  0.41049336  1
  C  C82  1  0.83466999  0.24183776  0.47995823  1
  C  C83  1  0.16533001  0.75816224  0.52004177  1
  C  C84  1  0.91403450  0.32580384  0.46070746  1
  C  C85  1  0.08596550  0.67419616  0.53929254  1
  C  C86  1  0.90895742  0.22514321  0.54921476  1
  C  C87  1  0.09104258  0.77485679  0.45078524  1
  C  C88  1  0.65727816  0.32648420  0.50125262  1
  C  C89  1  0.34272184  0.67351580  0.49874738  1
  C  C90  1  0.59682361  0.37321121  0.58696123  1
  C  C91  1  0.40317639  0.62678879  0.41303877  1
  C  C92  1  0.60051646  0.47427751  0.49793551  1
  C  C93  1  0.39948354  0.52572249  0.50206449  1
  C  C94  1  0.02468299  0.26126541  0.95909116  1
  C  C95  1  0.97531701  0.73873459  0.04090884  1
  C  C96  1  0.00491643  0.20403879  0.09512914  1
  C  C97  1  0.99508357  0.79596121  0.90487086  1
  C  C98  1  0.09452886  0.34236033  0.01999196  1
  C  C99  1  0.90547114  0.65763967  0.98000804  1
  C  C100  1  0.76468549  0.07837273  0.94018403  1
  C  C101  1  0.23531451  0.92162727  0.05981597  1
  C  C102  1  0.67571425  0.25219758  0.98370760  1
  C  C103  1  0.32428575  0.74780242  0.01629240  1
  C  C104  1  0.56503250  0.13886474  0.99235801  1
  C  C105  1  0.43496750  0.86113526  0.00764199  1
  C  C106  1  0.96561983  0.05704813  0.71570137  1
  C  C107  1  0.03438017  0.94295187  0.28429863  1
  C  C108  1  0.13390769  0.99331376  0.62379657  1
  C  C109  1  0.86609231  0.00668624  0.37620343  1
  C  C110  1  0.00276592  0.89206078  0.67089622  1
  C  C111  1  0.99723408  0.10793922  0.32910378  1
  C  C112  1  0.76305394  0.44430510  0.78033964  1
  C  C113  1  0.23694606  0.55569490  0.21966036  1
  C  C114  1  0.79065112  0.53192250  0.86042679  1
  C  C115  1  0.20934888  0.46807750  0.13957321  1
  C  C116  1  0.59927223  0.60369498  0.82629101  1
  C  C117  1  0.40072777  0.39630502  0.17370899  1
  C  C118  1  0.22218026  0.24045601  0.53176970  1
  C  C119  1  0.77781974  0.75954399  0.46823030  1
  C  C120  1  0.25700828  0.28862300  0.39452972  1
  C  C121  1  0.74299172  0.71137700  0.60547028  1
  C  C122  1  0.41747501  0.16414098  0.46781409  1
  C  C123  1  0.58252499  0.83585902  0.53218591  1
  C  C124  1  0.76670276  0.44110373  0.56881545  1
  C  C125  1  0.23329724  0.55889627  0.43118455  1
  C  C126  1  0.86074040  0.28656099  0.50433391  1
  C  C127  1  0.13925960  0.71343901  0.49566609  1
  C  C128  1  0.64621156  0.38872540  0.53044299  1
  C  C129  1  0.35378844  0.61127460  0.46955701  1
  C  C130  1  0.69765989  0.04172299  0.58660653  1
  C  C131  1  0.30234011  0.95827701  0.41339347  1
  C  C132  1  0.68702702  0.89213587  0.82659799  1
  C  C133  1  0.31297298  0.10786413  0.17340201  1
  C  C134  1  0.40073708  0.96850877  0.72124845  1
  C  C135  1  0.59926292  0.03149123  0.27875155  1
  C  C136  1  0.62012140  0.25979762  0.75487022  1
  C  C137  1  0.37987860  0.74020238  0.24512978  1
  C  C138  1  0.36390137  0.33355216  0.63231791  1
  C  C139  1  0.63609863  0.66644784  0.36768209  1
  C  C140  1  0.33589886  0.18055319  0.86713981  1
  C  C141  1  0.66410114  0.81944681  0.13286019  1
  C  C142  1  0.40018141  0.62578702  0.67450222  1
  C  C143  1  0.59981859  0.37421298  0.32549778  1
  C  C144  1  0.33484775  0.48577521  0.91389147  1
  C  C145  1  0.66515225  0.51422479  0.08610853  1
  C  C146  1  0.09840614  0.54284293  0.77450555  1
  C  C147  1  0.90159386  0.45715707  0.22549445  1
  Ni  Ni148  1  0.67109190  0.15345864  0.97263719  1
  Ni  Ni149  1  0.32890810  0.84654136  0.02736281  1
  Ni  Ni150  1  0.03809915  0.27199050  0.02277953  1
  Ni  Ni151  1  0.96190085  0.72800950  0.97722047  1
  Ni  Ni152  1  0.03095552  0.98316614  0.67151238  1
  Ni  Ni153  1  0.96904448  0.01683386  0.32848762  1
  Ni  Ni154  1  0.71885118  0.52448572  0.82020430  1
  Ni  Ni155  1  0.28114882  0.47551428  0.17979570  1
  Ni  Ni156  1  0.29638973  0.23212101  0.46707477  1
  Ni  Ni157  1  0.70361027  0.76787899  0.53292523  1
  Ni  Ni158  1  0.75807917  0.37426859  0.53531011  1
  Ni  Ni159  1  0.24192083  0.62573141  0.46468989  1
  Cu  Cu160  1  0.85910217  0.08381606  0.92037007  1
  Cu  Cu161  1  0.14089783  0.91618394  0.07962993  1
  Cu  Cu162  1  0.98404935  0.19655630  0.95760528  1
  Cu  Cu163  1  0.01595065  0.80344370  0.04239472  1
  Cu  Cu164  1  0.98722650  0.13571498  0.71795919  1
  Cu  Cu165  1  0.01277350  0.86428502  0.28204081  1
  Cu  Cu166  1  0.86362238  0.37263373  0.77586037  1
  Cu  Cu167  1  0.13637762  0.62736627  0.22413963  1
  Cu  Cu168  1  0.11766302  0.29937624  0.53542052  1
  Cu  Cu169  1  0.88233698  0.70062376  0.46457948  1
  Cu  Cu170  1  0.85845931  0.43346863  0.57718011  1
  Cu  Cu171  1  0.14154069  0.56653137  0.42281989  1
  Cu  Cu172  1  0.13769473  0.99890969  0.87899926  1
  Cu  Cu173  1  0.86230527  0.00109031  0.12100074  1
  Cu  Cu174  1  0.12873018  0.23405094  0.75016834  1
  Cu  Cu175  1  0.87126982  0.76594906  0.24983166  1
  Cu  Cu176  1  0.04628426  0.48354832  0.62201268  1
  Cu  Cu177  1  0.95371574  0.51645168  0.37798732  1
