# generated using pymatgen
data_Cu4NiC24
_symmetry_space_group_name_H-M   'P 1'
_cell_length_a   9.32611760
_cell_length_b   9.32611760
_cell_length_c   9.32611760
_cell_angle_alpha   60.00000000
_cell_angle_beta   60.00000000
_cell_angle_gamma   60.00000000
_symmetry_Int_Tables_number   1
_chemical_formula_structural   Cu4NiC24
_chemical_formula_sum   'Cu8 Ni2 C48'
_cell_volume   573.57163411
_cell_formula_units_Z   2
loop_
 _symmetry_equiv_pos_site_id
 _symmetry_equiv_pos_as_xyz
  1  'x, y, z'
loop_
 _atom_site_type_symbol
 _atom_site_label
 _atom_site_symmetry_multiplicity
 _atom_site_fract_x
 _atom_site_fract_y
 _atom_site_fract_z
 _atom_site_occupancy
  C  C0  1  0.28239400  0.28239400  0.71760600  1
  C  C1  1  0.96760600  0.53239400  0.53239400  1
  C  C2  1  0.71760600  0.28239400  0.71760600  1
  C  C3  1  0.28239400  0.71760600  0.28239400  1
  C  C4  1  0.53239400  0.96760600  0.96760600  1
  C  C5  1  0.53239400  0.53239400  0.96760600  1
  C  C6  1  0.71760600  0.28239400  0.28239400  1
  C  C7  1  0.71760600  0.71760600  0.28239400  1
  C  C8  1  0.96760600  0.53239400  0.96760600  1
  C  C9  1  0.53239400  0.96760600  0.53239400  1
  C  C10  1  0.28239400  0.71760600  0.71760600  1
  C  C11  1  0.96760600  0.96760600  0.53239400  1
  C  C12  1  0.62500000  0.12500000  0.12500000  1
  C  C13  1  0.12500000  0.12500000  0.12500000  1
  C  C14  1  0.12500000  0.12500000  0.62500000  1
  C  C15  1  0.12500000  0.62500000  0.12500000  1
  Ni  Ni16  1  0.50000000  0.50000000  0.50000000  1
  Ni  Ni17  1  0.75000000  0.75000000  0.75000000  1
  Cu  Cu18  1  0.29426600  0.90191100  0.90191100  1
  Cu  Cu19  1  0.90191100  0.29426600  0.90191100  1
  Cu  Cu20  1  0.90191100  0.90191100  0.90191100  1
  Cu  Cu21  1  0.90191100  0.90191100  0.29426600  1
  Cu  Cu22  1  0.34808900  0.34808900  0.95573400  1
  Cu  Cu23  1  0.34808900  0.34808900  0.34808900  1
  Cu  Cu24  1  0.34808900  0.95573400  0.34808900  1
  Cu  Cu25  1  0.95573400  0.34808900  0.34808900  1
  C  C26  1  0.21527300  0.49309200  0.33697600  1
  C  C27  1  0.95465900  0.33697600  0.49309200  1
  C  C28  1  0.29534100  0.03472700  0.91302400  1
  C  C29  1  0.03472700  0.29534100  0.75690800  1
  C  C30  1  0.29534100  0.75690800  0.03472700  1
  C  C31  1  0.56777600  0.56777600  0.29667300  1
  C  C32  1  0.91302400  0.03472700  0.75690800  1
  C  C33  1  0.56777600  0.56777600  0.56777600  1
  C  C34  1  0.56777600  0.29667300  0.56777600  1
  C  C35  1  0.91302400  0.29534100  0.03472700  1
  C  C36  1  0.75690800  0.29534100  0.91302400  1
  C  C37  1  0.29667300  0.56777600  0.56777600  1
  C  C38  1  0.03472700  0.91302400  0.29534100  1
  C  C39  1  0.75690800  0.91302400  0.03472700  1
  C  C40  1  0.91302400  0.75690800  0.29534100  1
  C  C41  1  0.49309200  0.21527300  0.95465900  1
  C  C42  1  0.75690800  0.03472700  0.29534100  1
  C  C43  1  0.33697600  0.49309200  0.95465900  1
  C  C44  1  0.49309200  0.33697600  0.21527300  1
  C  C45  1  0.21527300  0.33697600  0.95465900  1
  C  C46  1  0.95332700  0.68222400  0.68222400  1
  C  C47  1  0.49309200  0.95465900  0.33697600  1
  C  C48  1  0.33697600  0.95465900  0.21527300  1
  C  C49  1  0.68222400  0.95332700  0.68222400  1
  C  C50  1  0.68222400  0.68222400  0.68222400  1
  C  C51  1  0.33697600  0.21527300  0.49309200  1
  C  C52  1  0.68222400  0.68222400  0.95332700  1
  C  C53  1  0.95465900  0.49309200  0.21527300  1
  C  C54  1  0.21527300  0.95465900  0.49309200  1
  C  C55  1  0.95465900  0.21527300  0.33697600  1
  C  C56  1  0.29534100  0.91302400  0.75690800  1
  C  C57  1  0.03472700  0.75690800  0.91302400  1
