# generated using pymatgen
data_CuNi11C60
_symmetry_space_group_name_H-M   'P 1'
_cell_length_a   8.84157632
_cell_length_b   8.84157632
_cell_length_c   10.28269471
_cell_angle_alpha   72.98463437
_cell_angle_beta   72.98463437
_cell_angle_gamma   59.79939604
_symmetry_Int_Tables_number   1
_chemical_formula_structural   CuNi11C60
_chemical_formula_sum   'Cu1 Ni11 C60'
_cell_volume   653.95203769
_cell_formula_units_Z   1
loop_
 _symmetry_equiv_pos_site_id
 _symmetry_equiv_pos_as_xyz
  1  'x, y, z'
loop_
 _atom_site_type_symbol
 _atom_site_label
 _atom_site_symmetry_multiplicity
 _atom_site_fract_x
 _atom_site_fract_y
 _atom_site_fract_z
 _atom_site_occupancy
  C  C0  1  0.00450900  0.66112300  0.24982400  1
  C  C1  1  0.16768600  0.50000800  0.49962400  1
  C  C2  1  0.00464100  0.66203100  0.75103800  1
  C  C3  1  0.32833900  0.33882000  0.74900900  1
  C  C4  1  0.00006800  0.33325000  0.74997900  1
  C  C5  1  0.16672700  0.49995600  0.99996800  1
  C  C6  1  0.32802300  0.33918000  0.25006600  1
  C  C7  1  0.00133800  0.33274600  0.24919500  1
  C  C8  1  0.66725400  0.99866200  0.75080500  1
  C  C9  1  0.66675000  0.99993200  0.25002100  1
  C  C10  1  0.33796900  0.99535900  0.24896200  1
  C  C11  1  0.49999200  0.83231400  0.50037600  1
  C  C12  1  0.33887700  0.99549100  0.75017600  1
  C  C13  1  0.66082000  0.67197700  0.74993400  1
  C  C14  1  0.33480900  0.66570400  0.74891200  1
  C  C15  1  0.50004400  0.83327300  0.00003200  1
  C  C16  1  0.66118000  0.67166100  0.25099100  1
  C  C17  1  0.33429600  0.66519100  0.25108800  1
  C  C18  1  0.67026800  0.32897600  0.25042500  1
  C  C19  1  0.83309400  0.16690600  0.50000000  1
  C  C20  1  0.67102400  0.32973200  0.74957500  1
  C  C21  1  0.99474400  0.00444200  0.74933900  1
  C  C22  1  0.83336400  0.16663600  0.00000000  1
  C  C23  1  0.99555800  0.00525600  0.25066100  1
  Ni  Ni24  1  0.49770800  0.16984900  0.49780800  1
  Ni  Ni25  1  0.16659400  0.16603700  0.50019900  1
  Ni  Ni26  1  0.49902600  0.16788000  0.99991400  1
  Ni  Ni27  1  0.16741800  0.16593500  0.99976000  1
  Ni  Ni28  1  0.83396300  0.83340600  0.49980100  1
  Ni  Ni29  1  0.16856000  0.83144000  0.50000000  1
  Ni  Ni30  1  0.83406500  0.83258200  0.00024000  1
  Ni  Ni31  1  0.16590300  0.83409700  0.00000000  1
  Ni  Ni32  1  0.83015100  0.50229200  0.50219200  1
  Ni  Ni33  1  0.83212000  0.50097400  0.00008600  1
  Ni  Ni34  1  0.50066900  0.49933100  0.00000000  1
  Cu  Cu35  1  0.50317300  0.49682700  0.50000000  1
  C  C36  1  0.07201200  0.40629300  0.38422600  1
  C  C37  1  0.56979400  0.26533200  0.61183700  1
  C  C38  1  0.07339800  0.40695800  0.88429900  1
  C  C39  1  0.25981400  0.23730100  0.61336500  1
  C  C40  1  0.57042400  0.25999900  0.11343400  1
  C  C41  1  0.25981000  0.23724300  0.11324000  1
  C  C42  1  0.40710700  0.09707700  0.38640300  1
  C  C43  1  0.74061600  0.07353200  0.38447300  1
  C  C44  1  0.09753900  0.07202700  0.38641700  1
  C  C45  1  0.40689100  0.09632500  0.88642500  1
  C  C46  1  0.59370700  0.92798800  0.61577400  1
  C  C47  1  0.23722400  0.92657500  0.61323000  1
  C  C48  1  0.73995100  0.07341600  0.88443900  1
  C  C49  1  0.09609600  0.07348200  0.88685500  1
  C  C50  1  0.92797300  0.90246100  0.61358300  1
  C  C51  1  0.59304200  0.92660200  0.11570100  1
  C  C52  1  0.23741100  0.92660700  0.11331300  1
  C  C53  1  0.92651800  0.90390400  0.11314600  1
  C  C54  1  0.07342500  0.76277600  0.38677000  1
  C  C55  1  0.76269900  0.74018600  0.38663500  1
  C  C56  1  0.40927000  0.73671900  0.38625200  1
  C  C57  1  0.07339300  0.76258900  0.88668700  1
  C  C58  1  0.90292300  0.59289300  0.61359700  1
  C  C59  1  0.26328100  0.59073000  0.61374800  1
  C  C60  1  0.76275700  0.74019000  0.88676000  1
  C  C61  1  0.40673900  0.74015700  0.88445100  1
  C  C62  1  0.59323300  0.57152200  0.61284700  1
  C  C63  1  0.90367500  0.59310900  0.11357500  1
  C  C64  1  0.25984300  0.59326100  0.11554900  1
  C  C65  1  0.59321200  0.57068700  0.11303100  1
  C  C66  1  0.73466800  0.43020600  0.38816300  1
  C  C67  1  0.42847800  0.40676700  0.38715300  1
  C  C68  1  0.74000100  0.42957600  0.88656600  1
  C  C69  1  0.92646800  0.25938400  0.61552700  1
  C  C70  1  0.42931300  0.40678800  0.88696900  1
  C  C71  1  0.92658400  0.26004900  0.11556100  1
