# generated using pymatgen
data_Cu3Ni2C23
_symmetry_space_group_name_H-M   'P 1'
_cell_length_a   5.74605632
_cell_length_b   5.74605632
_cell_length_c   9.28373366
_cell_angle_alpha   89.85889219
_cell_angle_beta   89.85889219
_cell_angle_gamma   60.32211743
_symmetry_Int_Tables_number   1
_chemical_formula_structural   Cu3Ni2C23
_chemical_formula_sum   'Cu3 Ni2 C23'
_cell_volume   266.31267135
_cell_formula_units_Z   1
loop_
 _symmetry_equiv_pos_site_id
 _symmetry_equiv_pos_as_xyz
  1  'x, y, z'
loop_
 _atom_site_type_symbol
 _atom_site_label
 _atom_site_symmetry_multiplicity
 _atom_site_fract_x
 _atom_site_fract_y
 _atom_site_fract_z
 _atom_site_occupancy
  C  C0  1  0.33119100  0.33119100  0.10546700  1
  C  C1  1  0.00854600  0.00854600  0.00492300  1
  C  C2  1  0.00760500  0.00760500  0.50297600  1
  C  C3  1  0.66516600  0.66516600  0.59965700  1
  Ni  Ni4  1  0.33049500  0.33049500  0.51391300  1
  Ni  Ni5  1  0.66515300  0.66515300  0.01745100  1
  Cu  Cu6  1  0.65977900  0.17156200  0.78861800  1
  Cu  Cu7  1  0.17156200  0.65977900  0.78861800  1
  Cu  Cu8  1  0.83106100  0.83106100  0.29139600  1
  C  C9  1  0.17093600  0.17093600  0.78696500  1
  C  C10  1  0.83093300  0.34164100  0.28629600  1
  C  C11  1  0.34164100  0.83093300  0.28629600  1
  C  C12  1  0.66980400  0.16206000  0.39785200  1
  C  C13  1  0.47934100  0.47934100  0.65433600  1
  C  C14  1  0.33019800  0.33019800  0.89803400  1
  C  C15  1  0.00397500  0.00397500  0.69131300  1
  C  C16  1  0.00393100  0.00393100  0.19261400  1
  C  C17  1  0.16206000  0.66980400  0.39785200  1
  C  C18  1  0.47443500  0.03976100  0.65744800  1
  C  C19  1  0.03976100  0.47443500  0.65744800  1
  C  C20  1  0.83467500  0.83467500  0.90143300  1
  C  C21  1  0.16691300  0.16691300  0.39726400  1
  C  C22  1  0.95673600  0.52149400  0.15888100  1
  C  C23  1  0.52149400  0.95673600  0.15888100  1
  C  C24  1  0.66285400  0.66285400  0.39311700  1
  C  C25  1  0.83626700  0.33464800  0.90062500  1
  C  C26  1  0.51978800  0.51978800  0.16287500  1
  C  C27  1  0.33464800  0.83626700  0.90062500  1
