# generated using pymatgen
data_Cu5NiC3
_symmetry_space_group_name_H-M   'P 1'
_cell_length_a   4.77224100
_cell_length_b   10.36250168
_cell_length_c   9.53769326
_cell_angle_alpha   62.83094986
_cell_angle_beta   90.00007175
_cell_angle_gamma   90.00031004
_symmetry_Int_Tables_number   1
_chemical_formula_structural   Cu5NiC3
_chemical_formula_sum   'Cu20 Ni4 C12'
_cell_volume   419.61976728
_cell_formula_units_Z   4
loop_
 _symmetry_equiv_pos_site_id
 _symmetry_equiv_pos_as_xyz
  1  'x, y, z'
loop_
 _atom_site_type_symbol
 _atom_site_label
 _atom_site_symmetry_multiplicity
 _atom_site_fract_x
 _atom_site_fract_y
 _atom_site_fract_z
 _atom_site_occupancy
  C  C0  1  0.99091100  0.33460800  0.84118600  1
  C  C1  1  0.99090900  0.33461000  0.34118300  1
  C  C2  1  0.50908800  0.83461300  0.84118500  1
  C  C3  1  0.50909500  0.83461300  0.34118300  1
  C  C4  1  0.99164500  0.67694500  0.15892800  1
  C  C5  1  0.99165200  0.67694600  0.65893600  1
  C  C6  1  0.50834500  0.17695000  0.15893000  1
  C  C7  1  0.50835100  0.17694800  0.65893100  1
  C  C8  1  0.00071300  0.99855300  0.00029200  1
  C  C9  1  0.49932500  0.49862400  0.50027200  1
  C  C10  1  0.00068200  0.99868200  0.50019200  1
  C  C11  1  0.49935000  0.49868000  0.00018200  1
  Ni  Ni12  1  0.69786100  0.33122600  0.98538500  1
  Ni  Ni13  1  0.69785100  0.33122300  0.48538300  1
  Ni  Ni14  1  0.80214700  0.83122500  0.98538100  1
  Ni  Ni15  1  0.80214700  0.83122500  0.48538300  1
  Cu  Cu16  1  0.19785700  0.49589100  0.84847100  1
  Cu  Cu17  1  0.19787300  0.49589100  0.34847300  1
  Cu  Cu18  1  0.30212700  0.99589000  0.84847300  1
  Cu  Cu19  1  0.30213500  0.99588900  0.34847500  1
  Cu  Cu20  1  0.19529500  0.82882100  0.68331400  1
  Cu  Cu21  1  0.19529200  0.82882600  0.18331500  1
  Cu  Cu22  1  0.30470000  0.32882200  0.18331300  1
  Cu  Cu23  1  0.30471000  0.32882600  0.68331100  1
  Cu  Cu24  1  0.19979000  0.16826300  0.01283100  1
  Cu  Cu25  1  0.19979900  0.16826400  0.51283100  1
  Cu  Cu26  1  0.30019700  0.66826600  0.01282900  1
  Cu  Cu27  1  0.30020400  0.66826300  0.51283200  1
  Cu  Cu28  1  0.68980600  0.99858300  0.65317500  1
  Cu  Cu29  1  0.68981800  0.99858400  0.15318000  1
  Cu  Cu30  1  0.81016800  0.49857700  0.15317600  1
  Cu  Cu31  1  0.81016000  0.49858000  0.65317700  1
  Cu  Cu32  1  0.69326000  0.66702400  0.81646800  1
  Cu  Cu33  1  0.69325100  0.66702100  0.31647300  1
  Cu  Cu34  1  0.80674000  0.16702300  0.31647100  1
  Cu  Cu35  1  0.80674700  0.16702100  0.81647400  1
