# generated using pymatgen
data_Cu5Ni7C60
_symmetry_space_group_name_H-M   'P 1'
_cell_length_a   5.05806000
_cell_length_b   9.79891258
_cell_length_c   13.44988268
_cell_angle_alpha   97.14326824
_cell_angle_beta   100.58667317
_cell_angle_gamma   94.61965009
_symmetry_Int_Tables_number   1
_chemical_formula_structural   Cu5Ni7C60
_chemical_formula_sum   'Cu5 Ni7 C60'
_cell_volume   646.52678655
_cell_formula_units_Z   1
loop_
 _symmetry_equiv_pos_site_id
 _symmetry_equiv_pos_as_xyz
  1  'x, y, z'
loop_
 _atom_site_type_symbol
 _atom_site_label
 _atom_site_symmetry_multiplicity
 _atom_site_fract_x
 _atom_site_fract_y
 _atom_site_fract_z
 _atom_site_occupancy
  C  C0  1  0.15778900  0.00028400  0.83535500  1
  C  C1  1  0.05265600  0.00010700  0.61242100  1
  C  C2  1  0.00050200  0.74938600  0.25149400  1
  C  C3  1  0.33203900  0.75046900  0.91591600  1
  C  C4  1  0.04412900  0.49858000  0.11188200  1
  C  C5  1  0.38374400  0.49965900  0.77854100  1
  C  C6  1  0.16554200  0.49983300  0.33381900  1
  C  C7  1  0.49522100  0.50052500  0.99980500  1
  C  C8  1  0.28750800  0.49924100  0.55282700  1
  C  C9  1  0.33024400  0.24954700  0.41631800  1
  C  C10  1  0.49081800  0.00107200  0.50172100  1
  C  C11  1  0.28977900  0.00201600  0.05396200  1
  C  C12  1  0.62108600  0.00007800  0.71869100  1
  C  C13  1  0.37901100  0.00196900  0.27962700  1
  C  C14  1  0.71474100  0.99878600  0.94450900  1
  C  C15  1  0.66504200  0.75015200  0.58405700  1
  C  C16  1  0.71948100  0.50097100  0.44735800  1
  C  C17  1  0.82284800  0.49962000  0.66885300  1
  C  C18  1  0.62013000  0.50062300  0.22114500  1
  C  C19  1  0.95767000  0.50046800  0.88679500  1
  C  C20  1  0.66671700  0.24973200  0.08307200  1
  C  C21  1  0.83554400  0.99902700  0.16761900  1
  C  C22  1  0.00078400  0.25057700  0.75125100  1
  C  C23  1  0.95500800  0.99809300  0.38683800  1
  Ni  Ni24  1  0.22535900  0.74992000  0.69333000  1
  Ni  Ni25  1  0.56534500  0.25609300  0.86091400  1
  Ni  Ni26  1  0.44716900  0.74948600  0.13930300  1
  Ni  Ni27  1  0.55456600  0.74694700  0.36102300  1
  Ni  Ni28  1  0.77460000  0.24861500  0.30562100  1
  Ni  Ni29  1  0.88695000  0.24630700  0.52714400  1
  Ni  Ni30  1  0.89574600  0.75373300  0.02663900  1
  Cu  Cu31  1  0.12013000  0.25061800  0.97366800  1
  Cu  Cu32  1  0.10656400  0.75043500  0.47366600  1
  Cu  Cu33  1  0.21599400  0.24836800  0.19213600  1
  Cu  Cu34  1  0.43850200  0.25018800  0.64025900  1
  Cu  Cu35  1  0.77403300  0.74956200  0.80595700  1
  C  C36  1  0.00581800  0.86379300  0.92922700  1
  C  C37  1  0.06659400  0.63653300  0.78554400  1
  C  C38  1  0.99687200  0.36332500  0.42854000  1
  C  C39  1  0.15201300  0.36221900  0.64442000  1
  C  C40  1  0.26640000  0.36648000  0.88083400  1
  C  C41  1  0.33645000  0.86341100  0.59641000  1
  C  C42  1  0.06720700  0.13340200  0.28521400  1
  C  C43  1  0.18789400  0.13662100  0.52266300  1
  C  C44  1  0.39595200  0.13494900  0.95178800  1
  C  C45  1  0.14138200  0.86340200  0.14295100  1
  C  C46  1  0.26060700  0.86359900  0.38317500  1
  C  C47  1  0.48496900  0.86284600  0.81039100  1
  C  C48  1  0.33510500  0.13782900  0.73515600  1
  C  C49  1  0.19056300  0.63645900  0.02275800  1
  C  C50  1  0.40140000  0.63594900  0.45347500  1
  C  C51  1  0.52118100  0.63605600  0.68891100  1
  C  C52  1  0.33221200  0.63620100  0.23823900  1
  C  C53  1  0.66474700  0.63846500  0.90098600  1
  C  C54  1  0.33184200  0.36069700  0.09084000  1
  C  C55  1  0.67301700  0.36431200  0.76308400  1
  C  C56  1  0.47182900  0.36146500  0.30734200  1
  C  C57  1  0.59445400  0.36361200  0.54963900  1
  C  C58  1  0.81369800  0.36239100  0.97751300  1
  C  C59  1  0.66676000  0.86347800  0.26246500  1
  C  C60  1  0.51916900  0.13854500  0.18856200  1
  C  C61  1  0.73518900  0.13617200  0.62013800  1
  C  C62  1  0.86146300  0.13814600  0.85921000  1
  C  C63  1  0.59630800  0.86624900  0.04794100  1
  C  C64  1  0.81785600  0.86178300  0.47800000  1
  C  C65  1  0.92744000  0.86404400  0.71599400  1
  C  C66  1  0.66524400  0.13476800  0.40454500  1
  C  C67  1  0.73463900  0.63365600  0.11719500  1
  C  C68  1  0.85451600  0.63631900  0.35606400  1
  C  C69  1  0.99905500  0.63733700  0.56862600  1
  C  C70  1  0.93596400  0.36490000  0.21355700  1
  C  C71  1  0.00120000  0.13950500  0.07506500  1
