# generated using pymatgen
data_Cu4NiC23
_symmetry_space_group_name_H-M   'P 1'
_cell_length_a   8.86456200
_cell_length_b   9.04924183
_cell_length_c   10.20013402
_cell_angle_alpha   78.01541226
_cell_angle_beta   67.33679797
_cell_angle_gamma   64.57020596
_symmetry_Int_Tables_number   1
_chemical_formula_structural   Cu4NiC23
_chemical_formula_sum   'Cu8 Ni2 C46'
_cell_volume   681.02111517
_cell_formula_units_Z   2
loop_
 _symmetry_equiv_pos_site_id
 _symmetry_equiv_pos_as_xyz
  1  'x, y, z'
loop_
 _atom_site_type_symbol
 _atom_site_label
 _atom_site_symmetry_multiplicity
 _atom_site_fract_x
 _atom_site_fract_y
 _atom_site_fract_z
 _atom_site_occupancy
  C  C0  1  0.58062200  0.81519800  0.42246700  1
  C  C1  1  0.86823000  0.30116700  0.49674800  1
  C  C2  1  0.13177000  0.69883300  0.50325200  1
  C  C3  1  0.41937800  0.18480200  0.57753300  1
  C  C4  1  0.29330600  0.98388600  0.22387000  1
  C  C5  1  0.70669400  0.01611400  0.77613000  1
  Ni  Ni6  1  0.98137100  0.15780000  0.12961300  1
  Ni  Ni7  1  0.01862900  0.84220000  0.87038700  1
  Cu  Cu8  1  0.61726700  0.79753400  0.96249500  1
  Cu  Cu9  1  0.04053000  0.80722000  0.21228400  1
  Cu  Cu10  1  0.02488300  0.51015800  0.16741700  1
  Cu  Cu11  1  0.61619600  0.16515800  0.21823400  1
  Cu  Cu12  1  0.38380400  0.83484200  0.78176600  1
  Cu  Cu13  1  0.97511700  0.48984200  0.83258300  1
  Cu  Cu14  1  0.95947000  0.19278000  0.78771600  1
  Cu  Cu15  1  0.38273300  0.20246600  0.03750500  1
  C  C16  1  0.75418200  0.55893200  0.15070400  1
  C  C17  1  0.21330500  0.97282400  0.49511500  1
  C  C18  1  0.95841700  0.60544300  0.37518900  1
  C  C19  1  0.62975900  0.31942900  0.23400100  1
  C  C20  1  0.66370900  0.35782600  0.83250400  1
  C  C21  1  0.33629100  0.64217400  0.16749600  1
  C  C22  1  0.37024100  0.68057100  0.76599900  1
  C  C23  1  0.04158300  0.39455700  0.62481100  1
  C  C24  1  0.78669500  0.02717600  0.50488500  1
  C  C25  1  0.24581800  0.44106800  0.84929600  1
  C  C26  1  0.17193000  0.95780000  0.83767400  1
  C  C27  1  0.78802800  0.61891700  0.92497400  1
  C  C28  1  0.54408000  0.81366800  0.13468400  1
  C  C29  1  0.47082700  0.78568500  0.90900100  1
  C  C30  1  0.13392900  0.53070600  0.84544100  1
  C  C31  1  0.90516400  0.80441200  0.37525700  1
  C  C32  1  0.00589400  0.70545900  0.10630700  1
  C  C33  1  0.14444700  0.92990900  0.12415500  1
  C  C34  1  0.99367600  0.49470800  0.33901800  1
  C  C35  1  0.50759300  0.08808800  0.35929300  1
  C  C36  1  0.22574100  0.65636000  0.24501500  1
  C  C37  1  0.60159500  0.52019300  0.44702400  1
  C  C38  1  0.04574800  0.17256400  0.27736400  1
  C  C39  1  0.65326900  0.56235900  0.53948700  1
  C  C40  1  0.27844000  0.88146400  0.43149700  1
  C  C41  1  0.72156000  0.11853600  0.56850300  1
  C  C42  1  0.34673100  0.43764100  0.46051300  1
  C  C43  1  0.95425200  0.82743600  0.72263600  1
  C  C44  1  0.39840500  0.47980700  0.55297600  1
  C  C45  1  0.77425900  0.34364000  0.75498500  1
  C  C46  1  0.49240700  0.91191200  0.64070700  1
  C  C47  1  0.00632400  0.50529200  0.66098200  1
  C  C48  1  0.85555300  0.07009100  0.87584500  1
  C  C49  1  0.99410600  0.29454100  0.89369300  1
  C  C50  1  0.09483600  0.19558800  0.62474300  1
  C  C51  1  0.86607100  0.46929400  0.15455900  1
  C  C52  1  0.52917300  0.21431500  0.09099900  1
  C  C53  1  0.45592000  0.18633200  0.86531600  1
  C  C54  1  0.21197200  0.38108300  0.07502600  1
  C  C55  1  0.82807000  0.04220000  0.16232600  1
