# generated using pymatgen
data_Cu3NiC36
_symmetry_space_group_name_H-M   'P 1'
_cell_length_a   8.43590600
_cell_length_b   8.50531753
_cell_length_c   8.50614781
_cell_angle_alpha   62.16938990
_cell_angle_beta   62.26737444
_cell_angle_gamma   62.32957915
_symmetry_Int_Tables_number   1
_chemical_formula_structural   Cu3NiC36
_chemical_formula_sum   'Cu3 Ni1 C36'
_cell_volume   453.28836729
_cell_formula_units_Z   1
loop_
 _symmetry_equiv_pos_site_id
 _symmetry_equiv_pos_as_xyz
  1  'x, y, z'
loop_
 _atom_site_type_symbol
 _atom_site_label
 _atom_site_symmetry_multiplicity
 _atom_site_fract_x
 _atom_site_fract_y
 _atom_site_fract_z
 _atom_site_occupancy
  C  C0  1  0.97889400  0.00382000  0.99587600  1
  C  C1  1  0.25170800  0.64909300  0.84934400  1
  C  C2  1  0.51976800  0.50528000  0.49329500  1
  C  C3  1  0.73629400  0.34941600  0.15420400  1
  C  C4  1  0.34584200  0.15788800  0.73162900  1
  C  C5  1  0.15875900  0.73684800  0.34730500  1
  Ni  Ni6  1  0.14601500  0.14787600  0.14672700  1
  Cu  Cu7  1  0.85516700  0.86168100  0.85361800  1
  Cu  Cu8  1  0.64485000  0.64773600  0.63642100  1
  Cu  Cu9  1  0.35184200  0.35136200  0.35022900  1
  C  C10  1  0.95022600  0.55219900  0.24902400  1
  C  C11  1  0.55174100  0.25190300  0.94894700  1
  C  C12  1  0.24942600  0.95258300  0.54901100  1
  C  C13  1  0.74951500  0.04249200  0.45789800  1
  C  C14  1  0.45655000  0.74918100  0.03868900  1
  C  C15  1  0.04439800  0.46164200  0.75019100  1
  C  C16  1  0.87203100  0.50811300  0.70076100  1
  C  C17  1  0.68633300  0.88170200  0.49798300  1
  C  C18  1  0.95326300  0.73491100  0.08024900  1
  C  C19  1  0.47044900  0.69674900  0.88152900  1
  C  C20  1  0.76008100  0.56996500  0.40670900  1
  C  C21  1  0.98642100  0.38786900  0.19092100  1
  C  C22  1  0.74193900  0.09518100  0.92873300  1
  C  C23  1  0.54525900  0.42246600  0.76737500  1
  C  C24  1  0.40472700  0.75863000  0.56722400  1
  C  C25  1  0.81637300  0.00248200  0.61550900  1
  C  C26  1  0.90468000  0.06602500  0.26122300  1
  C  C27  1  0.62626800  0.80441400  0.98965300  1
  C  C28  1  0.38750900  0.18803600  0.99144300  1
  C  C29  1  0.09415300  0.93140000  0.74342200  1
  C  C30  1  0.18574400  0.99148200  0.38832600  1
  C  C31  1  0.58845600  0.23480200  0.44255000  1
  C  C32  1  0.44609100  0.58687700  0.23062000  1
  C  C33  1  0.26254200  0.90730500  0.07190300  1
  C  C34  1  0.02879700  0.61680900  0.80678700  1
  C  C35  1  0.23472000  0.43836000  0.58581700  1
  C  C36  1  0.52125200  0.30975400  0.11303100  1
  C  C37  1  0.06515900  0.26566800  0.90719600  1
  C  C38  1  0.31295500  0.11199800  0.51734000  1
  C  C39  1  0.11380600  0.51700200  0.31229200  1
