# generated using pymatgen
data_CuNi2C7
_symmetry_space_group_name_H-M   'P 1'
_cell_length_a   15.75084400
_cell_length_b   6.92948600
_cell_length_c   10.66336029
_cell_angle_alpha   89.27431052
_cell_angle_beta   90.00000000
_cell_angle_gamma   90.00000000
_symmetry_Int_Tables_number   1
_chemical_formula_structural   CuNi2C7
_chemical_formula_sum   'Cu4 Ni8 C28'
_cell_volume   1163.76180569
_cell_formula_units_Z   4
loop_
 _symmetry_equiv_pos_site_id
 _symmetry_equiv_pos_as_xyz
  1  'x, y, z'
loop_
 _atom_site_type_symbol
 _atom_site_label
 _atom_site_symmetry_multiplicity
 _atom_site_fract_x
 _atom_site_fract_y
 _atom_site_fract_z
 _atom_site_occupancy
  Ni  Ni0  1  0.22018600  0.73461100  0.04907900  1
  Ni  Ni1  1  0.56079600  0.73418600  0.17635100  1
  Ni  Ni2  1  0.06079600  0.26581400  0.32364900  1
  Ni  Ni3  1  0.72018600  0.26538900  0.45092100  1
  Ni  Ni4  1  0.27981400  0.73461100  0.54907900  1
  Ni  Ni5  1  0.93920400  0.73418600  0.67635100  1
  Ni  Ni6  1  0.43920400  0.26581400  0.82364900  1
  Ni  Ni7  1  0.77981400  0.26538900  0.95092100  1
  Cu  Cu8  1  0.87311500  0.78276500  0.21799500  1
  Cu  Cu9  1  0.37311500  0.21723500  0.28200500  1
  Cu  Cu10  1  0.62688500  0.78276500  0.71799500  1
  Cu  Cu11  1  0.12688500  0.21723500  0.78200500  1
  C  C12  1  0.13974900  0.29120300  0.02812100  1
  C  C13  1  0.39564300  0.99992000  0.07140600  1
  C  C14  1  0.39516400  0.48692400  0.08602700  1
  C  C15  1  0.92914700  0.12897900  0.12389600  1
  C  C16  1  0.74275200  0.51147800  0.19816100  1
  C  C17  1  0.72777400  0.99877000  0.20528300  1
  C  C18  1  0.04012100  0.70501200  0.21303200  1
  C  C19  1  0.54012100  0.29498800  0.28696800  1
  C  C20  1  0.22777400  0.00123000  0.29471700  1
  C  C21  1  0.24275200  0.48852200  0.30183900  1
  C  C22  1  0.42914700  0.87102100  0.37610400  1
  C  C23  1  0.89516400  0.51307600  0.41397300  1
  C  C24  1  0.89564300  0.00008000  0.42859400  1
  C  C25  1  0.63974900  0.70879700  0.47187900  1
  C  C26  1  0.36025100  0.29120300  0.52812100  1
  C  C27  1  0.10435700  0.99992000  0.57140600  1
  C  C28  1  0.10483600  0.48692400  0.58602700  1
  C  C29  1  0.57085300  0.12897900  0.62389600  1
  C  C30  1  0.75724800  0.51147800  0.69816100  1
  C  C31  1  0.77222600  0.99877000  0.70528300  1
  C  C32  1  0.45987900  0.70501200  0.71303200  1
  C  C33  1  0.95987900  0.29498800  0.78696800  1
  C  C34  1  0.27222600  0.00123000  0.79471700  1
  C  C35  1  0.25724800  0.48852200  0.80183900  1
  C  C36  1  0.07085300  0.87102100  0.87610400  1
  C  C37  1  0.60483600  0.51307600  0.91397300  1
  C  C38  1  0.60435700  0.00008000  0.92859400  1
  C  C39  1  0.86025100  0.70879700  0.97187900  1
