# generated using pymatgen
data_Cu2Ni2C5
_symmetry_space_group_name_H-M   'P 1'
_cell_length_a   5.57038400
_cell_length_b   8.93794141
_cell_length_c   10.38329613
_cell_angle_alpha   86.78386322
_cell_angle_beta   81.73858281
_cell_angle_gamma   89.33037360
_symmetry_Int_Tables_number   1
_chemical_formula_structural   Cu2Ni2C5
_chemical_formula_sum   'Cu8 Ni8 C20'
_cell_volume   510.78729240
_cell_formula_units_Z   4
loop_
 _symmetry_equiv_pos_site_id
 _symmetry_equiv_pos_as_xyz
  1  'x, y, z'
loop_
 _atom_site_type_symbol
 _atom_site_label
 _atom_site_symmetry_multiplicity
 _atom_site_fract_x
 _atom_site_fract_y
 _atom_site_fract_z
 _atom_site_occupancy
  Ni  Ni0  1  0.37980700  0.78115000  0.87641000  1
  Ni  Ni1  1  0.65047000  0.46320000  0.68273000  1
  Ni  Ni2  1  0.87237700  0.70249800  0.38254200  1
  Ni  Ni3  1  0.79591400  0.03902700  0.85305900  1
  Ni  Ni4  1  0.14464300  0.99699000  0.13760900  1
  Ni  Ni5  1  0.16119200  0.22163800  0.62585400  1
  Ni  Ni6  1  0.35274400  0.49172400  0.37475200  1
  Ni  Ni7  1  0.67383300  0.29927000  0.09706500  1
  Cu  Cu8  1  0.77372200  0.97294900  0.55951000  1
  Cu  Cu9  1  0.91538000  0.75675800  0.69544700  1
  Cu  Cu10  1  0.09166900  0.24265900  0.29611700  1
  Cu  Cu11  1  0.18999500  0.99946000  0.42651300  1
  Cu  Cu12  1  0.27584400  0.51690800  0.07885700  1
  Cu  Cu13  1  0.06373600  0.53371300  0.81388300  1
  Cu  Cu14  1  0.41516100  0.75333300  0.19823500  1
  Cu  Cu15  1  0.60214900  0.97711500  0.29285600  1
  C  C16  1  0.19987600  0.29058500  0.93748700  1
  C  C17  1  0.67603900  0.20841900  0.43070600  1
  C  C18  1  0.33130200  0.77809000  0.56053900  1
  C  C19  1  0.82595900  0.71503300  0.06115800  1
  C  C20  1  0.28534600  0.10685300  0.90273300  1
  C  C21  1  0.34142800  0.47109900  0.89725300  1
  C  C22  1  0.64864400  0.17789000  0.60143200  1
  C  C23  1  0.61802900  0.78265800  0.62137500  1
  C  C24  1  0.84422100  0.37837900  0.39851200  1
  C  C25  1  0.88085900  0.05105100  0.36608000  1
  C  C26  1  0.95011000  0.32533500  0.84750300  1
  C  C27  1  0.89213800  0.71851900  0.88474700  1
  C  C28  1  0.17595300  0.30126400  0.11404300  1
  C  C29  1  0.11087700  0.70075800  0.13016600  1
  C  C30  1  0.10022600  0.92604100  0.60937400  1
  C  C31  1  0.16316700  0.60451400  0.62102700  1
  C  C32  1  0.40038700  0.17466600  0.35916900  1
  C  C33  1  0.37497800  0.81230200  0.37725400  1
  C  C34  1  0.60072000  0.58223800  0.13767800  1
  C  C35  1  0.67234700  0.89443800  0.11166900  1
