# generated using pymatgen
data_Cu7NiC5
_symmetry_space_group_name_H-M   'P 1'
_cell_length_a   8.97978138
_cell_length_b   5.29329703
_cell_length_c   6.83034000
_cell_angle_alpha   89.99979180
_cell_angle_beta   90.00027151
_cell_angle_gamma   87.98622897
_symmetry_Int_Tables_number   1
_chemical_formula_structural   Cu7NiC5
_chemical_formula_sum   'Cu14 Ni2 C10'
_cell_volume   324.46365195
_cell_formula_units_Z   2
loop_
 _symmetry_equiv_pos_site_id
 _symmetry_equiv_pos_as_xyz
  1  'x, y, z'
loop_
 _atom_site_type_symbol
 _atom_site_label
 _atom_site_symmetry_multiplicity
 _atom_site_fract_x
 _atom_site_fract_y
 _atom_site_fract_z
 _atom_site_occupancy
  C  C0  1  0.08400800  0.77642800  0.24999200  1
  C  C1  1  0.27443400  0.25843400  0.48921600  1
  C  C2  1  0.27443500  0.25842000  0.01077900  1
  C  C3  1  0.72546600  0.74157200  0.98921700  1
  C  C4  1  0.72546900  0.74157800  0.51076800  1
  C  C5  1  0.91591200  0.22352400  0.75001000  1
  C  C6  1  0.34369300  0.77883400  0.74999400  1
  C  C7  1  0.65660800  0.22105400  0.25005500  1
  C  C8  1  0.41349800  0.71774600  0.25000200  1
  C  C9  1  0.58645200  0.28226500  0.75001200  1
  Ni  Ni10  1  0.05721000  0.70653700  0.74999500  1
  Ni  Ni11  1  0.94281500  0.29348100  0.24999500  1
  Cu  Cu12  1  0.11227500  0.93182200  0.75000000  1
  Cu  Cu13  1  0.08465800  0.32347300  0.24999800  1
  Cu  Cu14  1  0.15212000  0.51227700  0.74997000  1
  Cu  Cu15  1  0.31728000  0.79477100  0.06793700  1
  Cu  Cu16  1  0.31728200  0.79477100  0.43206300  1
  Cu  Cu17  1  0.43487400  0.15111000  0.74999800  1
  Cu  Cu18  1  0.44269600  0.42495400  0.25000100  1
  Cu  Cu19  1  0.55742500  0.57512800  0.74999700  1
  Cu  Cu20  1  0.56503500  0.84895900  0.25000400  1
  Cu  Cu21  1  0.68268100  0.20522800  0.56795800  1
  Cu  Cu22  1  0.68267900  0.20522900  0.93206200  1
  Cu  Cu23  1  0.84789100  0.48769100  0.24997300  1
  Cu  Cu24  1  0.91535500  0.67653700  0.74999800  1
  Cu  Cu25  1  0.88775100  0.06817900  0.25000400  1
