# generated using pymatgen
data_Cu2(NiC2)3
_symmetry_space_group_name_H-M   'P 1'
_cell_length_a   3.92055906
_cell_length_b   18.52505974
_cell_length_c   6.06597906
_cell_angle_alpha   84.36761093
_cell_angle_beta   89.98110895
_cell_angle_gamma   90.00393534
_symmetry_Int_Tables_number   1
_chemical_formula_structural   Cu2(NiC2)3
_chemical_formula_sum   'Cu8 Ni12 C24'
_cell_volume   438.43647783
_cell_formula_units_Z   4
loop_
 _symmetry_equiv_pos_site_id
 _symmetry_equiv_pos_as_xyz
  1  'x, y, z'
loop_
 _atom_site_type_symbol
 _atom_site_label
 _atom_site_symmetry_multiplicity
 _atom_site_fract_x
 _atom_site_fract_y
 _atom_site_fract_z
 _atom_site_occupancy
  C  C0  1  0.99824400  0.65898200  0.50598300  1
  C  C1  1  0.49850000  0.90910000  0.75606500  1
  C  C2  1  0.99849400  0.15900700  0.00626400  1
  C  C3  1  0.49876300  0.40915100  0.25720200  1
  C  C4  1  0.99791600  0.65450300  0.99992800  1
  C  C5  1  0.49816100  0.90450300  0.24906900  1
  C  C6  1  0.99813400  0.15451500  0.49964500  1
  C  C7  1  0.49823900  0.40451700  0.74988900  1
  C  C8  1  0.49820300  0.60805900  0.29372400  1
  C  C9  1  0.99849400  0.85813400  0.54328700  1
  C  C10  1  0.49848300  0.10811700  0.79356000  1
  C  C11  1  0.99870900  0.35819500  0.04391800  1
  C  C12  1  0.49785500  0.59228900  0.71781400  1
  C  C13  1  0.99805700  0.84225800  0.96818700  1
  C  C14  1  0.49803100  0.09224400  0.21873900  1
  C  C15  1  0.99824600  0.34227800  0.46920000  1
  C  C16  1  0.99949800  0.51763400  0.05714300  1
  C  C17  1  0.49934700  0.76728000  0.30728900  1
  C  C18  1  0.99948600  0.01771000  0.55691500  1
  C  C19  1  0.49957800  0.26769700  0.80741800  1
  C  C20  1  0.99789700  0.50036500  0.49262700  1
  C  C21  1  0.49804100  0.75057700  0.74290100  1
  C  C22  1  0.99797900  0.00058600  0.99281400  1
  C  C23  1  0.49803400  0.25037300  0.24329800  1
  Ni  Ni24  1  0.49818600  0.68223000  0.50365300  1
  Ni  Ni25  1  0.99842800  0.93250400  0.75401000  1
  Ni  Ni26  1  0.49842200  0.18243100  0.00478400  1
  Ni  Ni27  1  0.99868800  0.43237700  0.25487600  1
  Ni  Ni28  1  0.49795500  0.50053400  0.56759100  1
  Ni  Ni29  1  0.99793300  0.75061100  0.81728500  1
  Ni  Ni30  1  0.49796600  0.00070600  0.06811400  1
  Ni  Ni31  1  0.99804600  0.25060800  0.31927900  1
  Ni  Ni32  1  0.99810500  0.58574200  0.27529000  1
  Ni  Ni33  1  0.49834900  0.83579100  0.52672700  1
  Ni  Ni34  1  0.99834500  0.08591500  0.77626900  1
  Ni  Ni35  1  0.49854200  0.33580900  0.02655800  1
  Cu  Cu36  1  0.49781600  0.65396400  0.97993200  1
  Cu  Cu37  1  0.99801500  0.90350600  0.23079200  1
  Cu  Cu38  1  0.49801200  0.15313100  0.48097000  1
  Cu  Cu39  1  0.99807300  0.40346600  0.73143500  1
  Cu  Cu40  1  0.99781300  0.57563600  0.77732000  1
  Cu  Cu41  1  0.49800600  0.82609100  0.02774000  1
  Cu  Cu42  1  0.99797700  0.07590100  0.27723900  1
  Cu  Cu43  1  0.49815500  0.32592500  0.52782300  1
