# generated using pymatgen
data_Cu11Ni9C10
_symmetry_space_group_name_H-M   'P 1'
_cell_length_a   15.41743500
_cell_length_b   4.77461500
_cell_length_c   4.78551166
_cell_angle_alpha   85.33434102
_cell_angle_beta   90.00000000
_cell_angle_gamma   90.00000000
_symmetry_Int_Tables_number   1
_chemical_formula_structural   Cu11Ni9C10
_chemical_formula_sum   'Cu11 Ni9 C10'
_cell_volume   351.10527943
_cell_formula_units_Z   1
loop_
 _symmetry_equiv_pos_site_id
 _symmetry_equiv_pos_as_xyz
  1  'x, y, z'
loop_
 _atom_site_type_symbol
 _atom_site_label
 _atom_site_symmetry_multiplicity
 _atom_site_fract_x
 _atom_site_fract_y
 _atom_site_fract_z
 _atom_site_occupancy
  C  C0  1  0.29774300  0.00429400  0.99480000  1
  C  C1  1  0.50000000  0.00136800  0.99836200  1
  C  C2  1  0.70225700  0.00429400  0.99480000  1
  C  C3  1  0.90956400  0.97055700  0.01089000  1
  C  C4  1  0.09043600  0.97055700  0.01089000  1
  C  C5  1  0.40212200  0.50104200  0.49886100  1
  C  C6  1  0.79195800  0.50757200  0.48570000  1
  C  C7  1  0.59787800  0.50104200  0.49886100  1
  C  C8  1  0.00000000  0.54855700  0.50637700  1
  C  C9  1  0.20804200  0.50757200  0.48570000  1
  Ni  Ni10  1  0.00000000  0.79864000  0.79791200  1
  Ni  Ni11  1  0.30403300  0.70329800  0.29367200  1
  Ni  Ni12  1  0.50000000  0.70293200  0.29732400  1
  Ni  Ni13  1  0.69596700  0.70329800  0.29367200  1
  Ni  Ni14  1  0.89476500  0.68508100  0.31875000  1
  Ni  Ni15  1  0.10523500  0.68508100  0.31875000  1
  Ni  Ni16  1  0.30154100  0.30086300  0.69569600  1
  Ni  Ni17  1  0.50000000  0.30091300  0.69912400  1
  Ni  Ni18  1  0.69845900  0.30086300  0.69569600  1
  Cu  Cu19  1  0.40044600  0.81005500  0.80516500  1
  Cu  Cu20  1  0.59955400  0.81005500  0.80516500  1
  Cu  Cu21  1  0.79750900  0.80170400  0.80284600  1
  Cu  Cu22  1  0.20249100  0.80170400  0.80284600  1
  Cu  Cu23  1  0.89674800  0.29583900  0.70807900  1
  Cu  Cu24  1  0.10325200  0.29583900  0.70807900  1
  Cu  Cu25  1  0.40024900  0.19428100  0.18882100  1
  Cu  Cu26  1  0.79873600  0.19323300  0.19185400  1
  Cu  Cu27  1  0.59975100  0.19428100  0.18882100  1
  Cu  Cu28  1  0.20126400  0.19323300  0.19185400  1
  Cu  Cu29  1  0.00000000  0.21195000  0.21063200  1
