# generated using pymatgen
data_Cu2NiC14
_symmetry_space_group_name_H-M   'P 1'
_cell_length_a   9.20816300
_cell_length_b   10.11100200
_cell_length_c   16.38954732
_cell_angle_alpha   79.93871761
_cell_angle_beta   90.00000000
_cell_angle_gamma   90.00000000
_symmetry_Int_Tables_number   1
_chemical_formula_structural   Cu2NiC14
_chemical_formula_sum   'Cu16 Ni8 C112'
_cell_volume   1502.46183839
_cell_formula_units_Z   8
loop_
 _symmetry_equiv_pos_site_id
 _symmetry_equiv_pos_as_xyz
  1  'x, y, z'
loop_
 _atom_site_type_symbol
 _atom_site_label
 _atom_site_symmetry_multiplicity
 _atom_site_fract_x
 _atom_site_fract_y
 _atom_site_fract_z
 _atom_site_occupancy
  C  C0  1  0.94695700  0.89082500  0.88897900  1
  C  C1  1  0.44695700  0.10917500  0.61102100  1
  C  C2  1  0.05304300  0.10917500  0.11102100  1
  C  C3  1  0.55304300  0.89082500  0.38897900  1
  C  C4  1  0.15554000  0.22827700  0.77072800  1
  C  C5  1  0.65554000  0.77172300  0.72927200  1
  C  C6  1  0.84446000  0.77172300  0.22927200  1
  C  C7  1  0.34446000  0.22827700  0.27072800  1
  Ni  Ni8  1  0.31211000  0.58988700  0.80432700  1
  Ni  Ni9  1  0.81211000  0.41011300  0.69567300  1
  Ni  Ni10  1  0.68789000  0.41011300  0.19567300  1
  Ni  Ni11  1  0.18789000  0.58988700  0.30432700  1
  Ni  Ni12  1  0.58275100  0.07288000  0.85094000  1
  Ni  Ni13  1  0.08275100  0.92712000  0.64906000  1
  Ni  Ni14  1  0.41724900  0.92712000  0.14906000  1
  Ni  Ni15  1  0.91724900  0.07288000  0.35094000  1
  Cu  Cu16  1  0.83009400  0.28632300  0.89096200  1
  Cu  Cu17  1  0.33009400  0.71367700  0.60903800  1
  Cu  Cu18  1  0.16990600  0.71367700  0.10903800  1
  Cu  Cu19  1  0.66990600  0.28632300  0.39096200  1
  Cu  Cu20  1  0.98400200  0.64206000  0.76111100  1
  Cu  Cu21  1  0.48400200  0.35794000  0.73888900  1
  Cu  Cu22  1  0.01599800  0.35794000  0.23888900  1
  Cu  Cu23  1  0.51599800  0.64206000  0.26111100  1
  Cu  Cu24  1  0.30591700  0.90266800  0.80328100  1
  Cu  Cu25  1  0.80591700  0.09733200  0.69671900  1
  Cu  Cu26  1  0.69408300  0.09733200  0.19671900  1
  Cu  Cu27  1  0.19408300  0.90266800  0.30328100  1
  Cu  Cu28  1  0.63796300  0.83134700  0.00832300  1
  Cu  Cu29  1  0.13796300  0.16865300  0.49167700  1
  Cu  Cu30  1  0.36203700  0.16865300  0.99167700  1
  Cu  Cu31  1  0.86203700  0.83134700  0.50832300  1
  C  C32  1  0.57422900  0.52421500  0.86235900  1
  C  C33  1  0.07422900  0.47578500  0.63764100  1
  C  C34  1  0.42577100  0.47578500  0.13764100  1
  C  C35  1  0.92577100  0.52421500  0.36235900  1
  C  C36  1  0.51379700  0.64000600  0.90888100  1
  C  C37  1  0.01379700  0.35999400  0.59111900  1
  C  C38  1  0.48620300  0.35999400  0.09111900  1
  C  C39  1  0.98620300  0.64000600  0.40888100  1
  C  C40  1  0.22271700  0.55475100  0.96242700  1
  C  C41  1  0.72271700  0.44524900  0.53757300  1
  C  C42  1  0.77728300  0.44524900  0.03757300  1
  C  C43  1  0.27728300  0.55475100  0.46242700  1
  C  C44  1  0.75972800  0.59003800  0.06664900  1
  C  C45  1  0.25972800  0.40996200  0.43335100  1
  C  C46  1  0.24027200  0.40996200  0.93335100  1
  C  C47  1  0.74027200  0.59003800  0.56664900  1
  C  C48  1  0.04818600  0.21045900  0.94155100  1
  C  C49  1  0.54818600  0.78954100  0.55844900  1
  C  C50  1  0.95181400  0.78954100  0.05844900  1
  C  C51  1  0.45181400  0.21045900  0.44155100  1
  C  C52  1  0.89121300  0.54100100  0.88372600  1
  C  C53  1  0.39121300  0.45899900  0.61627400  1
  C  C54  1  0.10878700  0.45899900  0.11627400  1
  C  C55  1  0.60878700  0.54100100  0.38372600  1
  C  C56  1  0.70330300  0.97943400  0.10071600  1
  C  C57  1  0.20330300  0.02056600  0.39928400  1
  C  C58  1  0.29669700  0.02056600  0.89928400  1
  C  C59  1  0.79669700  0.97943400  0.60071600  1
  C  C60  1  0.42852800  0.73516100  0.02966900  1
  C  C61  1  0.92852800  0.26483900  0.47033100  1
  C  C62  1  0.57147200  0.26483900  0.97033100  1
  C  C63  1  0.07147200  0.73516100  0.52966900  1
  C  C64  1  0.82165000  0.40671100  0.93568600  1
  C  C65  1  0.32165000  0.59328900  0.56431400  1
  C  C66  1  0.17835000  0.59328900  0.06431400  1
  C  C67  1  0.67835000  0.40671100  0.43568600  1
  C  C68  1  0.94695900  0.17660800  0.93461700  1
  C  C69  1  0.44695900  0.82339200  0.56538300  1
  C  C70  1  0.05304100  0.82339200  0.06538300  1
  C  C71  1  0.55304100  0.17660800  0.43461700  1
  C  C72  1  0.88372000  0.32565300  0.80074400  1
  C  C73  1  0.38372000  0.67434700  0.69925600  1
  C  C74  1  0.11628000  0.67434700  0.19925600  1
  C  C75  1  0.61628000  0.32565300  0.30074400  1
  C  C76  1  0.68439100  0.20864000  0.89916700  1
  C  C77  1  0.18439100  0.79136000  0.60083300  1
  C  C78  1  0.31560900  0.79136000  0.10083300  1
  C  C79  1  0.81560900  0.20864000  0.39916700  1
  C  C80  1  0.12839500  0.56660900  0.76113400  1
  C  C81  1  0.62839500  0.43339100  0.73886600  1
  C  C82  1  0.87160500  0.43339100  0.23886600  1
  C  C83  1  0.37160500  0.56660900  0.26113400  1
  C  C84  1  0.87139200  0.58012000  0.70924400  1
  C  C85  1  0.37139200  0.41988000  0.79075600  1
  C  C86  1  0.12860800  0.41988000  0.29075600  1
  C  C87  1  0.62860800  0.58012000  0.20924400  1
  C  C88  1  0.99375700  0.79390700  0.73122700  1
  C  C89  1  0.49375700  0.20609300  0.76877300  1
  C  C90  1  0.00624300  0.20609300  0.26877300  1
  C  C91  1  0.50624300  0.79390700  0.23122700  1
  C  C92  1  0.92144200  0.63364600  0.85260700  1
  C  C93  1  0.42144200  0.36635400  0.64739300  1
  C  C94  1  0.07855800  0.36635400  0.14739300  1
  C  C95  1  0.57855800  0.63364600  0.35260700  1
  C  C96  1  0.21965200  0.97918300  0.86618400  1
  C  C97  1  0.71965200  0.02081700  0.63381600  1
  C  C98  1  0.78034800  0.02081700  0.13381600  1
  C  C99  1  0.28034800  0.97918300  0.36618400  1
  C  C100  1  0.27907700  0.75350900  0.83530800  1
  C  C101  1  0.77907700  0.24649100  0.66469200  1
  C  C102  1  0.72092300  0.24649100  0.16469200  1
  C  C103  1  0.22092300  0.75350900  0.33530800  1
  C  C104  1  0.46649500  0.94236300  0.80504600  1
  C  C105  1  0.96649500  0.05763700  0.69495400  1
  C  C106  1  0.53350500  0.05763700  0.19495400  1
  C  C107  1  0.03350500  0.94236300  0.30504600  1
  C  C108  1  0.23982300  0.95372400  0.71758600  1
  C  C109  1  0.73982300  0.04627600  0.78241400  1
  C  C110  1  0.76017700  0.04627600  0.28241400  1
  C  C111  1  0.26017700  0.95372400  0.21758600  1
  C  C112  1  0.51678200  0.72189800  0.99542000  1
  C  C113  1  0.01678200  0.27810200  0.50458000  1
  C  C114  1  0.48321800  0.27810200  0.00458000  1
  C  C115  1  0.98321800  0.72189800  0.49542000  1
  C  C116  1  0.77789900  0.75648000  0.03827000  1
  C  C117  1  0.27789900  0.24352000  0.46173000  1
  C  C118  1  0.22210100  0.24352000  0.96173000  1
  C  C119  1  0.72210100  0.75648000  0.53827000  1
  C  C120  1  0.57351200  0.90837800  0.07374400  1
  C  C121  1  0.07351200  0.09162200  0.42625600  1
  C  C122  1  0.42648800  0.09162200  0.92625600  1
  C  C123  1  0.92648800  0.90837800  0.57374400  1
  C  C124  1  0.66562100  0.92639800  0.92669800  1
  C  C125  1  0.16562100  0.07360200  0.57330200  1
  C  C126  1  0.33437900  0.07360200  0.07330200  1
  C  C127  1  0.83437900  0.92639800  0.42669800  1
  C  C128  1  0.51651400  0.60640000  0.85528800  1
  C  C129  1  0.01651400  0.39360000  0.64471200  1
  C  C130  1  0.48348600  0.39360000  0.14471200  1
  C  C131  1  0.98348600  0.60640000  0.35528800  1
  C  C132  1  0.25002400  0.50950800  0.91564000  1
  C  C133  1  0.75002400  0.49049200  0.58436000  1
  C  C134  1  0.74997600  0.49049200  0.08436000  1
  C  C135  1  0.24997600  0.50950800  0.41564000  1
