# generated using pymatgen
data_Cu10Ni20C53
_symmetry_space_group_name_H-M   'P 1'
_cell_length_a   7.20174200
_cell_length_b   9.87148500
_cell_length_c   24.05636989
_cell_angle_alpha   86.09887797
_cell_angle_beta   90.00000000
_cell_angle_gamma   90.00000000
_symmetry_Int_Tables_number   1
_chemical_formula_structural   Cu10Ni20C53
_chemical_formula_sum   'Cu20 Ni40 C106'
_cell_volume   1706.25010293
_cell_formula_units_Z   2
loop_
 _symmetry_equiv_pos_site_id
 _symmetry_equiv_pos_as_xyz
  1  'x, y, z'
loop_
 _atom_site_type_symbol
 _atom_site_label
 _atom_site_symmetry_multiplicity
 _atom_site_fract_x
 _atom_site_fract_y
 _atom_site_fract_z
 _atom_site_occupancy
  C  C0  1  0.00000000  0.00000000  0.00000000  1
  C  C1  1  0.50000000  0.00000000  0.50000000  1
  C  C2  1  0.73871300  0.22883000  0.00600400  1
  C  C3  1  0.23871300  0.77117000  0.49399600  1
  C  C4  1  0.26128700  0.77117000  0.99399600  1
  C  C5  1  0.76128700  0.22883000  0.50600400  1
  C  C6  1  0.62065900  0.32034200  0.05534500  1
  C  C7  1  0.12065900  0.67965800  0.44465500  1
  C  C8  1  0.37934100  0.67965800  0.94465500  1
  C  C9  1  0.87934100  0.32034200  0.55534500  1
  C  C10  1  0.69694500  0.26639400  0.15078100  1
  C  C11  1  0.19694500  0.73360600  0.34921900  1
  C  C12  1  0.30305500  0.73360600  0.84921900  1
  C  C13  1  0.80305500  0.26639400  0.65078100  1
  C  C14  1  0.78297900  0.10749600  0.16918800  1
  C  C15  1  0.28297900  0.89250400  0.33081200  1
  C  C16  1  0.21702100  0.89250400  0.83081200  1
  C  C17  1  0.71702100  0.10749600  0.66918800  1
  C  C18  1  0.66927700  0.26220200  0.87188400  1
  C  C19  1  0.16927700  0.73779800  0.62811600  1
  C  C20  1  0.33072300  0.73779800  0.12811600  1
  C  C21  1  0.83072300  0.26220200  0.37188400  1
  C  C22  1  0.57281000  0.13611500  0.83404400  1
  C  C23  1  0.07281000  0.86388500  0.66595600  1
  C  C24  1  0.42719000  0.86388500  0.16595600  1
  C  C25  1  0.92719000  0.13611500  0.33404400  1
  C  C26  1  0.57849000  0.90775600  0.87275200  1
  C  C27  1  0.07849000  0.09224400  0.62724800  1
  C  C28  1  0.42151000  0.09224400  0.12724800  1
  C  C29  1  0.92151000  0.90775600  0.37275200  1
  C  C30  1  0.70875800  0.86999600  0.93311000  1
  C  C31  1  0.20875800  0.13000400  0.56689000  1
  C  C32  1  0.29124200  0.13000400  0.06689000  1
  C  C33  1  0.79124200  0.86999600  0.43311000  1
  C  C34  1  0.33834700  0.39800200  0.99966500  1
  C  C35  1  0.83834700  0.60199800  0.50033500  1
  C  C36  1  0.66165300  0.60199800  0.00033500  1
  C  C37  1  0.16165300  0.39800200  0.49966500  1
  C  C38  1  0.34349000  0.42951000  0.92753400  1
  C  C39  1  0.84349000  0.57049000  0.57246600  1
  C  C40  1  0.65651000  0.57049000  0.07246600  1
  C  C41  1  0.15651000  0.42951000  0.42753400  1
  C  C42  1  0.07709000  0.14763500  0.89613900  1
  C  C43  1  0.57709000  0.85236500  0.60386100  1
  C  C44  1  0.92291000  0.85236500  0.10386100  1
  C  C45  1  0.42291000  0.14763500  0.39613900  1
  C  C46  1  0.14511900  0.31194100  0.87079500  1
  C  C47  1  0.64511900  0.68805900  0.62920500  1
  C  C48  1  0.85488100  0.68805900  0.12920500  1
  C  C49  1  0.35488100  0.31194100  0.37079500  1
  C  C50  1  0.30518500  0.50065200  0.68459100  1
  C  C51  1  0.80518500  0.49934800  0.81540900  1
  C  C52  1  0.69481500  0.49934800  0.31540900  1
  C  C53  1  0.19481500  0.50065200  0.18459100  1
  C  C54  1  0.07133100  0.49950800  0.67009600  1
  C  C55  1  0.57133100  0.50049200  0.82990400  1
  C  C56  1  0.92866900  0.50049200  0.32990400  1
  C  C57  1  0.42866900  0.49950800  0.17009600  1
  C  C58  1  0.43650500  0.36686200  0.55865900  1
  C  C59  1  0.93650500  0.63313800  0.94134100  1
  C  C60  1  0.56349500  0.63313800  0.44134100  1
  C  C61  1  0.06349500  0.36686200  0.05865900  1
  C  C62  1  0.51500200  0.42994100  0.62071600  1
  C  C63  1  0.01500200  0.57005900  0.87928400  1
  C  C64  1  0.48499800  0.57005900  0.37928400  1
  C  C65  1  0.98499800  0.42994100  0.12071600  1
  C  C66  1  0.98984100  0.71872300  0.23994700  1
  C  C67  1  0.48984100  0.28127700  0.26005300  1
  C  C68  1  0.01015900  0.28127700  0.76005300  1
  C  C69  1  0.51015900  0.71872300  0.73994700  1
  C  C70  1  0.10782400  0.87466600  0.23832500  1
  C  C71  1  0.60782400  0.12533400  0.26167500  1
  C  C72  1  0.89217600  0.12533400  0.76167500  1
  C  C73  1  0.39217600  0.87466600  0.73832500  1
  C  C74  1  0.54392600  0.87357600  0.25255900  1
  C  C75  1  0.04392600  0.12642400  0.24744100  1
  C  C76  1  0.45607400  0.12642400  0.74744100  1
  C  C77  1  0.95607400  0.87357600  0.75255900  1
  C  C78  1  0.66045400  0.71877900  0.24222800  1
  C  C79  1  0.16045400  0.28122100  0.25777200  1
  C  C80  1  0.33954600  0.28122100  0.75777200  1
  C  C81  1  0.83954600  0.71877900  0.74222800  1
  C  C82  1  0.77946700  0.15756400  0.08540300  1
  C  C83  1  0.27946700  0.84243600  0.41459700  1
  C  C84  1  0.22053300  0.84243600  0.91459700  1
  C  C85  1  0.72053300  0.15756400  0.58540300  1
  C  C86  1  0.70502500  0.06919100  0.90772700  1
  C  C87  1  0.20502500  0.93080900  0.59227300  1
  C  C88  1  0.29497500  0.93080900  0.09227300  1
  C  C89  1  0.79497500  0.06919100  0.40772700  1
  C  C90  1  0.20055800  0.25781500  0.95404900  1
  C  C91  1  0.70055800  0.74218500  0.54595100  1
  C  C92  1  0.79944200  0.74218500  0.04595100  1
  C  C93  1  0.29944200  0.25781500  0.45404900  1
  C  C94  1  0.23223600  0.44513400  0.60615800  1
  C  C95  1  0.73223600  0.55486600  0.89384200  1
  C  C96  1  0.76776400  0.55486600  0.39384200  1
  C  C97  1  0.26776400  0.44513400  0.10615800  1
  C  C98  1  0.82589700  0.89052000  0.24403800  1
  C  C99  1  0.32589700  0.10948000  0.25596200  1
  C  C100  1  0.17410300  0.10948000  0.75596200  1
  C  C101  1  0.67410300  0.89052000  0.74403800  1
  C  C102  1  0.77373300  0.47831500  0.19843700  1
  C  C103  1  0.27373300  0.52168500  0.30156300  1
  C  C104  1  0.22626700  0.52168500  0.80156300  1
  C  C105  1  0.72626700  0.47831500  0.69843700  1
  Ni  Ni106  1  0.72459100  0.25468700  0.04625900  1
  Ni  Ni107  1  0.22459100  0.74531300  0.45374100  1
  Ni  Ni108  1  0.27540900  0.74531300  0.95374100  1
  Ni  Ni109  1  0.77540900  0.25468700  0.54625900  1
  Ni  Ni110  1  0.72127500  0.17002500  0.13893400  1
  Ni  Ni111  1  0.22127500  0.82997500  0.36106600  1
  Ni  Ni112  1  0.27872500  0.82997500  0.86106600  1
  Ni  Ni113  1  0.77872500  0.17002500  0.63893400  1
  Ni  Ni114  1  0.63448400  0.16303600  0.86960800  1
  Ni  Ni115  1  0.13448400  0.83696400  0.63039200  1
  Ni  Ni116  1  0.36551600  0.83696400  0.13039200  1
  Ni  Ni117  1  0.86551600  0.16303600  0.36960800  1
  Ni  Ni118  1  0.67659800  0.93655800  0.90001900  1
  Ni  Ni119  1  0.17659800  0.06344200  0.59998100  1
  Ni  Ni120  1  0.32340200  0.06344200  0.09998100  1
  Ni  Ni121  1  0.82340200  0.93655800  0.40001900  1
  Ni  Ni122  1  0.29062300  0.37549000  0.96114000  1
  Ni  Ni123  1  0.79062300  0.62451000  0.53886000  1
  Ni  Ni124  1  0.70937700  0.62451000  0.03886000  1
  Ni  Ni125  1  0.20937700  0.37549000  0.46114000  1
  Ni  Ni126  1  0.13973900  0.23730900  0.90219000  1
  Ni  Ni127  1  0.63973900  0.76269100  0.59781000  1
  Ni  Ni128  1  0.86026100  0.76269100  0.09781000  1
  Ni  Ni129  1  0.36026100  0.23730900  0.40219000  1
  Ni  Ni130  1  0.20402300  0.50697500  0.65497200  1
  Ni  Ni131  1  0.70402300  0.49302500  0.84502800  1
  Ni  Ni132  1  0.79597700  0.49302500  0.34502800  1
  Ni  Ni133  1  0.29597700  0.50697500  0.15497200  1
  Ni  Ni134  1  0.41021700  0.41880700  0.59269900  1
  Ni  Ni135  1  0.91021700  0.58119300  0.90730100  1
  Ni  Ni136  1  0.58978300  0.58119300  0.40730100  1
  Ni  Ni137  1  0.08978300  0.41880700  0.09269900  1
  Ni  Ni138  1  0.98559700  0.82177900  0.23649900  1
  Ni  Ni139  1  0.48559700  0.17822100  0.26350100  1
  Ni  Ni140  1  0.01440300  0.17822100  0.76350100  1
  Ni  Ni141  1  0.51440300  0.82177900  0.73649900  1
  Ni  Ni142  1  0.66439600  0.82049800  0.24685100  1
  Ni  Ni143  1  0.16439600  0.17950200  0.25314900  1
  Ni  Ni144  1  0.33560400  0.17950200  0.75314900  1
  Ni  Ni145  1  0.83560400  0.82049800  0.74685100  1
  Cu  Cu146  1  0.87912600  0.05828800  0.07324600  1
  Cu  Cu147  1  0.37912600  0.94171200  0.42675400  1
  Cu  Cu148  1  0.12087400  0.94171200  0.92675400  1
  Cu  Cu149  1  0.62087400  0.05828800  0.57324600  1
  Cu  Cu150  1  0.79800400  0.10656300  0.94904600  1
  Cu  Cu151  1  0.29800400  0.89343700  0.55095400  1
  Cu  Cu152  1  0.20199600  0.89343700  0.05095400  1
  Cu  Cu153  1  0.70199600  0.10656300  0.44904600  1
  Cu  Cu154  1  0.17163800  0.17212000  0.99527500  1
  Cu  Cu155  1  0.67163800  0.82788000  0.50472500  1
  Cu  Cu156  1  0.82836200  0.82788000  0.00472500  1
  Cu  Cu157  1  0.32836200  0.17212000  0.49527500  1
  Cu  Cu158  1  0.09757100  0.42177200  0.57480200  1
  Cu  Cu159  1  0.59757100  0.57822800  0.92519800  1
  Cu  Cu160  1  0.90242900  0.57822800  0.42519800  1
  Cu  Cu161  1  0.40242900  0.42177200  0.07480200  1
  Cu  Cu162  1  0.82772900  0.01911200  0.24738500  1
  Cu  Cu163  1  0.32772900  0.98088800  0.25261500  1
  Cu  Cu164  1  0.17227100  0.98088800  0.75261500  1
  Cu  Cu165  1  0.67227100  0.01911200  0.74738500  1
