# generated using pymatgen
data_Cu4NiC26
_symmetry_space_group_name_H-M   'P 1'
_cell_length_a   2.94463000
_cell_length_b   9.25280600
_cell_length_c   25.24874200
_cell_angle_alpha   90.00000000
_cell_angle_beta   90.00000000
_cell_angle_gamma   90.00000000
_symmetry_Int_Tables_number   1
_chemical_formula_structural   Cu4NiC26
_chemical_formula_sum   'Cu8 Ni2 C52'
_cell_volume   687.92950025
_cell_formula_units_Z   2
loop_
 _symmetry_equiv_pos_site_id
 _symmetry_equiv_pos_as_xyz
  1  'x, y, z'
loop_
 _atom_site_type_symbol
 _atom_site_label
 _atom_site_symmetry_multiplicity
 _atom_site_fract_x
 _atom_site_fract_y
 _atom_site_fract_z
 _atom_site_occupancy
  C  C0  1  0.00000000  0.19623700  0.98991600  1
  C  C1  1  0.00000000  0.19874300  0.18444100  1
  C  C2  1  0.00000000  0.30125700  0.68444100  1
  C  C3  1  0.00000000  0.30376300  0.48991600  1
  C  C4  1  0.00000000  0.69623700  0.51008400  1
  C  C5  1  0.00000000  0.69874300  0.31555900  1
  C  C6  1  0.00000000  0.80125700  0.81555900  1
  C  C7  1  0.00000000  0.80376300  0.01008400  1
  C  C8  1  0.00000000  0.99830300  0.09955500  1
  C  C9  1  0.50000000  0.15757600  0.80905700  1
  C  C10  1  0.50000000  0.34242400  0.30905700  1
  C  C11  1  0.00000000  0.50169700  0.59955500  1
  C  C12  1  0.00000000  0.49830300  0.40044500  1
  C  C13  1  0.50000000  0.65757600  0.69094300  1
  C  C14  1  0.50000000  0.84242400  0.19094300  1
  C  C15  1  0.00000000  0.00169700  0.90044500  1
  Ni  Ni16  1  0.00000000  0.00000000  0.50000000  1
  Ni  Ni17  1  0.00000000  0.50000000  0.00000000  1
  Cu  Cu18  1  0.00000000  0.99901900  0.30767200  1
  Cu  Cu19  1  0.50000000  0.15071400  0.58651100  1
  Cu  Cu20  1  0.50000000  0.34928600  0.08651100  1
  Cu  Cu21  1  0.00000000  0.50098100  0.80767200  1
  Cu  Cu22  1  0.00000000  0.49901900  0.19232800  1
  Cu  Cu23  1  0.50000000  0.65071400  0.91348900  1
  Cu  Cu24  1  0.50000000  0.84928600  0.41348900  1
  Cu  Cu25  1  0.00000000  0.00098100  0.69232800  1
  C  C26  1  0.00000000  0.99262500  0.42419400  1
  C  C27  1  0.00000000  0.00737500  0.57580600  1
  C  C28  1  0.50000000  0.06138100  0.94387400  1
  C  C29  1  0.50000000  0.04232800  0.15662300  1
  C  C30  1  0.50000000  0.13279700  0.66564100  1
  C  C31  1  0.00000000  0.10566000  0.75981200  1
  C  C32  1  0.50000000  0.14353500  0.50317200  1
  C  C33  1  0.50000000  0.13769100  0.29390700  1
  C  C34  1  0.00000000  0.18555800  0.85842400  1
  C  C35  1  0.00000000  0.19911500  0.08223500  1
  C  C36  1  0.00000000  0.30088500  0.58223500  1
  C  C37  1  0.00000000  0.31444200  0.35842400  1
  C  C38  1  0.50000000  0.36230900  0.79390700  1
  C  C39  1  0.50000000  0.35646500  0.00317200  1
  C  C40  1  0.00000000  0.39434000  0.25981200  1
  C  C41  1  0.50000000  0.36720300  0.16564100  1
  C  C42  1  0.50000000  0.45767200  0.65662300  1
  C  C43  1  0.50000000  0.43861900  0.44387400  1
  C  C44  1  0.00000000  0.49262500  0.07580600  1
  C  C45  1  0.00000000  0.50737500  0.92419400  1
  C  C46  1  0.50000000  0.56138100  0.55612600  1
  C  C47  1  0.50000000  0.54232800  0.34337700  1
  C  C48  1  0.50000000  0.63279700  0.83435900  1
  C  C49  1  0.00000000  0.60566000  0.74018800  1
  C  C50  1  0.50000000  0.64353500  0.99682800  1
  C  C51  1  0.50000000  0.63769100  0.20609300  1
  C  C52  1  0.00000000  0.68555800  0.64157600  1
  C  C53  1  0.00000000  0.69911500  0.41776500  1
  C  C54  1  0.00000000  0.80088500  0.91776500  1
  C  C55  1  0.00000000  0.81444200  0.14157600  1
  C  C56  1  0.50000000  0.86230900  0.70609300  1
  C  C57  1  0.50000000  0.85646500  0.49682800  1
  C  C58  1  0.00000000  0.89434000  0.24018800  1
  C  C59  1  0.50000000  0.86720300  0.33435900  1
  C  C60  1  0.50000000  0.95767200  0.84337700  1
  C  C61  1  0.50000000  0.93861900  0.05612600  1
