# generated using pymatgen
data_Cu12Ni3C4
_symmetry_space_group_name_H-M   'P 1'
_cell_length_a   7.75336150
_cell_length_b   7.75336150
_cell_length_c   8.74660989
_cell_angle_alpha   68.44846835
_cell_angle_beta   68.44846835
_cell_angle_gamma   66.78703854
_symmetry_Int_Tables_number   1
_chemical_formula_structural   Cu12Ni3C4
_chemical_formula_sum   'Cu24 Ni6 C8'
_cell_volume   433.94913649
_cell_formula_units_Z   2
loop_
 _symmetry_equiv_pos_site_id
 _symmetry_equiv_pos_as_xyz
  1  'x, y, z'
loop_
 _atom_site_type_symbol
 _atom_site_label
 _atom_site_symmetry_multiplicity
 _atom_site_fract_x
 _atom_site_fract_y
 _atom_site_fract_z
 _atom_site_occupancy
  C  C0  1  0.67311500  0.86161800  0.05462200  1
  C  C1  1  0.86161800  0.67311500  0.55462200  1
  C  C2  1  0.13838200  0.32688500  0.44537800  1
  C  C3  1  0.32688500  0.13838200  0.94537800  1
  C  C4  1  0.36930000  0.87465400  0.48215200  1
  C  C5  1  0.87465400  0.36930000  0.98215200  1
  C  C6  1  0.12534600  0.63070000  0.01784800  1
  C  C7  1  0.63070000  0.12534600  0.51784800  1
  Ni  Ni8  1  0.74970200  0.53878800  0.32298600  1
  Ni  Ni9  1  0.53878800  0.74970200  0.82298600  1
  Ni  Ni10  1  0.05910700  0.94089300  0.25000000  1
  Ni  Ni11  1  0.94089300  0.05910700  0.75000000  1
  Ni  Ni12  1  0.46121200  0.25029800  0.17701400  1
  Ni  Ni13  1  0.25029800  0.46121200  0.67701400  1
  Cu  Cu14  1  0.87011200  0.94998000  0.38526100  1
  Cu  Cu15  1  0.94998000  0.87011200  0.88526100  1
  Cu  Cu16  1  0.87664500  0.50038000  0.42893200  1
  Cu  Cu17  1  0.61116700  0.73896300  0.31139900  1
  Cu  Cu18  1  0.86828200  0.54363500  0.13824600  1
  Cu  Cu19  1  0.50038000  0.87664500  0.92893200  1
  Cu  Cu20  1  0.21696500  0.90273800  0.32292800  1
  Cu  Cu21  1  0.65045700  0.39241300  0.38285700  1
  Cu  Cu22  1  0.73896300  0.61116700  0.81139900  1
  Cu  Cu23  1  0.54363500  0.86828200  0.63824600  1
  Cu  Cu24  1  0.90273800  0.21696500  0.82292800  1
  Cu  Cu25  1  0.60758700  0.34954300  0.11714300  1
  Cu  Cu26  1  0.39241300  0.65045700  0.88285700  1
  Cu  Cu27  1  0.09726200  0.78303500  0.17707200  1
  Cu  Cu28  1  0.45636500  0.13171800  0.36175400  1
  Cu  Cu29  1  0.26103700  0.38883300  0.18860100  1
  Cu  Cu30  1  0.34954300  0.60758700  0.61714300  1
  Cu  Cu31  1  0.78303500  0.09726200  0.67707200  1
  Cu  Cu32  1  0.49962000  0.12335500  0.07106800  1
  Cu  Cu33  1  0.13171800  0.45636500  0.86175400  1
  Cu  Cu34  1  0.38883300  0.26103700  0.68860100  1
  Cu  Cu35  1  0.12335500  0.49962000  0.57106800  1
  Cu  Cu36  1  0.05002000  0.12988800  0.11473900  1
  Cu  Cu37  1  0.12988800  0.05002000  0.61473900  1
