# generated using pymatgen
data_Cu26Ni6C49
_symmetry_space_group_name_H-M   'P 1'
_cell_length_a   8.16624300
_cell_length_b   11.42432479
_cell_length_c   11.75458892
_cell_angle_alpha   100.43669833
_cell_angle_beta   109.14822742
_cell_angle_gamma   96.58611456
_symmetry_Int_Tables_number   1
_chemical_formula_structural   Cu26Ni6C49
_chemical_formula_sum   'Cu26 Ni6 C49'
_cell_volume   1000.76567714
_cell_formula_units_Z   1
loop_
 _symmetry_equiv_pos_site_id
 _symmetry_equiv_pos_as_xyz
  1  'x, y, z'
loop_
 _atom_site_type_symbol
 _atom_site_label
 _atom_site_symmetry_multiplicity
 _atom_site_fract_x
 _atom_site_fract_y
 _atom_site_fract_z
 _atom_site_occupancy
  C  C0  1  0.30105400  0.90359400  0.79874900  1
  C  C1  1  0.69894600  0.09640600  0.20125100  1
  C  C2  1  0.97849300  0.71872700  0.19525200  1
  C  C3  1  0.02150700  0.28127300  0.80474800  1
  C  C4  1  0.61445600  0.69377600  0.60260200  1
  C  C5  1  0.38554400  0.30622400  0.39739800  1
  C  C6  1  0.00000000  0.00000000  0.00000000  1
  C  C7  1  0.50000000  0.00000000  0.50000000  1
  C  C8  1  0.00000000  0.50000000  0.50000000  1
  Ni  Ni9  1  0.38798100  0.56927500  0.22767800  1
  Ni  Ni10  1  0.61201900  0.43072500  0.77232200  1
  Ni  Ni11  1  0.51914600  0.77599000  0.13783100  1
  Ni  Ni12  1  0.48085400  0.22401000  0.86216900  1
  Ni  Ni13  1  0.49847900  0.63735400  0.89703000  1
  Ni  Ni14  1  0.50152100  0.36264600  0.10297000  1
  Cu  Cu15  1  0.72406000  0.85347100  0.95152200  1
  Cu  Cu16  1  0.27594000  0.14652900  0.04847800  1
  Cu  Cu17  1  0.25098700  0.89874400  0.09334200  1
  Cu  Cu18  1  0.74901300  0.10125600  0.90665800  1
  Cu  Cu19  1  0.00410100  0.78978900  0.89675300  1
  Cu  Cu20  1  0.99589900  0.21021100  0.10324700  1
  Cu  Cu21  1  0.65783000  0.87472500  0.38493500  1
  Cu  Cu22  1  0.34217000  0.12527500  0.61506500  1
  Cu  Cu23  1  0.21705100  0.87306000  0.46841300  1
  Cu  Cu24  1  0.78294900  0.12694000  0.53158700  1
  Cu  Cu25  1  0.34204200  0.00145900  0.27559300  1
  Cu  Cu26  1  0.65795800  0.99854100  0.72440700  1
  Cu  Cu27  1  0.20651200  0.54684800  0.39321100  1
  Cu  Cu28  1  0.79348800  0.45315200  0.60678900  1
  Cu  Cu29  1  0.15519600  0.60582900  0.72273200  1
  Cu  Cu30  1  0.84480400  0.39417100  0.27726800  1
  Cu  Cu31  1  0.76539700  0.60056500  0.37750800  1
  Cu  Cu32  1  0.23460300  0.39943500  0.62249200  1
  Cu  Cu33  1  0.94142600  0.59329500  0.87192500  1
  Cu  Cu34  1  0.05857400  0.40670500  0.12807500  1
  Cu  Cu35  1  0.14267700  0.64388500  0.94122900  1
  Cu  Cu36  1  0.85732300  0.35611500  0.05877100  1
  Cu  Cu37  1  0.94646600  0.90673200  0.52557600  1
  Cu  Cu38  1  0.05353400  0.09326800  0.47442400  1
  Cu  Cu39  1  0.00083000  0.78064800  0.50933100  1
  Cu  Cu40  1  0.99917000  0.21935200  0.49066900  1
  C  C41  1  0.80013600  0.91568600  0.02831900  1
  C  C42  1  0.19986400  0.08431400  0.97168100  1
  C  C43  1  0.15960800  0.93079700  0.12585100  1
  C  C44  1  0.84039200  0.06920300  0.87414900  1
  C  C45  1  0.98457800  0.86652400  0.86539100  1
  C  C46  1  0.01542200  0.13347600  0.13460900  1
  C  C47  1  0.66640100  0.89667300  0.47466000  1
  C  C48  1  0.33359900  0.10332700  0.52534000  1
  C  C49  1  0.30650800  0.85957800  0.42857200  1
  C  C50  1  0.69349200  0.14042200  0.57142800  1
  C  C51  1  0.54047900  0.95874900  0.66091600  1
  C  C52  1  0.45952100  0.04125100  0.33908400  1
  C  C53  1  0.22501400  0.55562200  0.48279900  1
  C  C54  1  0.77498600  0.44437800  0.51720100  1
  C  C55  1  0.06906400  0.62834300  0.65028900  1
  C  C56  1  0.93093600  0.37165700  0.34971100  1
  C  C57  1  0.89884500  0.61869800  0.40861500  1
  C  C58  1  0.10115500  0.38130200  0.59138500  1
  C  C59  1  0.21149500  0.53483100  0.24055700  1
  C  C60  1  0.78850500  0.46516900  0.75944300  1
  C  C61  1  0.55000300  0.58457000  0.33947300  1
  C  C62  1  0.44999700  0.41543000  0.66052700  1
  C  C63  1  0.37724700  0.68904500  0.17157700  1
  C  C64  1  0.62275300  0.31095500  0.82842300  1
  C  C65  1  0.60627200  0.52724000  0.88939800  1
  C  C66  1  0.39372800  0.47276000  0.11060200  1
  C  C67  1  0.58377900  0.68150600  0.04822400  1
  C  C68  1  0.41622100  0.31849400  0.95177600  1
  C  C69  1  0.67788200  0.83157400  0.25165300  1
  C  C70  1  0.32211800  0.16842600  0.74834700  1
  C  C71  1  0.41561700  0.85534500  0.06437900  1
  C  C72  1  0.58438300  0.14465500  0.93562100  1
  C  C73  1  0.56256400  0.73310700  0.84093400  1
  C  C74  1  0.43743600  0.26689300  0.15906600  1
  C  C75  1  0.30399500  0.58984600  0.85648300  1
  C  C76  1  0.69600500  0.41015400  0.14351700  1
  C  C77  1  0.02598700  0.66164100  0.93699700  1
  C  C78  1  0.97401300  0.33835900  0.06300300  1
  C  C79  1  0.05067200  0.86810100  0.53980300  1
  C  C80  1  0.94932800  0.13189900  0.46019700  1
