# generated using pymatgen
data_Cu7Ni5C6
_symmetry_space_group_name_H-M   'P 1'
_cell_length_a   4.76752600
_cell_length_b   5.69555183
_cell_length_c   7.87215028
_cell_angle_alpha   85.20040022
_cell_angle_beta   88.14596920
_cell_angle_gamma   87.55175010
_symmetry_Int_Tables_number   1
_chemical_formula_structural   Cu7Ni5C6
_chemical_formula_sum   'Cu7 Ni5 C6'
_cell_volume   212.72502153
_cell_formula_units_Z   1
loop_
 _symmetry_equiv_pos_site_id
 _symmetry_equiv_pos_as_xyz
  1  'x, y, z'
loop_
 _atom_site_type_symbol
 _atom_site_label
 _atom_site_symmetry_multiplicity
 _atom_site_fract_x
 _atom_site_fract_y
 _atom_site_fract_z
 _atom_site_occupancy
  C  C0  1  0.55956300  0.83083600  0.66233700  1
  C  C1  1  0.49967400  0.48657700  0.00562000  1
  C  C2  1  0.50808100  0.16573300  0.32354700  1
  C  C3  1  0.97627600  0.33428900  0.67343200  1
  C  C4  1  0.00928400  0.66574500  0.33438100  1
  C  C5  1  0.96412500  0.00908800  0.98731900  1
  Ni  Ni6  1  0.80455800  0.02996600  0.77104400  1
  Ni  Ni7  1  0.70024200  0.20388500  0.10421100  1
  Ni  Ni8  1  0.67357700  0.54232700  0.78198000  1
  Ni  Ni9  1  0.70428000  0.86937000  0.42524900  1
  Ni  Ni10  1  0.30036000  0.46536600  0.23526900  1
  Cu  Cu11  1  0.79696100  0.37618000  0.42680500  1
  Cu  Cu12  1  0.80893200  0.70579300  0.10199300  1
  Cu  Cu13  1  0.31268300  0.12530100  0.55979400  1
  Cu  Cu14  1  0.29204600  0.80395900  0.90794200  1
  Cu  Cu15  1  0.19439300  0.96165100  0.22541200  1
  Cu  Cu16  1  0.19268600  0.63585100  0.56417600  1
  Cu  Cu17  1  0.20228300  0.28808500  0.90949000  1
