# generated using pymatgen
data_CuNi4C3
_symmetry_space_group_name_H-M   'P 1'
_cell_length_a   5.20046700
_cell_length_b   10.48708181
_cell_length_c   10.50452860
_cell_angle_alpha   78.37343980
_cell_angle_beta   82.71480194
_cell_angle_gamma   80.53220334
_symmetry_Int_Tables_number   1
_chemical_formula_structural   CuNi4C3
_chemical_formula_sum   'Cu6 Ni24 C18'
_cell_volume   550.88786054
_cell_formula_units_Z   6
loop_
 _symmetry_equiv_pos_site_id
 _symmetry_equiv_pos_as_xyz
  1  'x, y, z'
loop_
 _atom_site_type_symbol
 _atom_site_label
 _atom_site_symmetry_multiplicity
 _atom_site_fract_x
 _atom_site_fract_y
 _atom_site_fract_z
 _atom_site_occupancy
  C  C0  1  0.99574700  0.91956700  0.72983800  1
  C  C1  1  0.66679800  0.41292100  0.60202700  1
  C  C2  1  0.33269200  0.74631100  0.93390200  1
  C  C3  1  0.66730800  0.25368900  0.06609800  1
  C  C4  1  0.33320200  0.58707900  0.39797300  1
  C  C5  1  0.00425300  0.08043300  0.27016200  1
  C  C6  1  0.50000000  0.00000000  0.50000000  1
  C  C7  1  0.66800400  0.33396700  0.33276500  1
  C  C8  1  0.33199600  0.66603300  0.66723500  1
  C  C9  1  0.00000000  0.00000000  0.00000000  1
  C  C10  1  0.83194900  0.66808700  0.16682200  1
  C  C11  1  0.16805100  0.33191300  0.83317800  1
  C  C12  1  0.81218000  0.62688500  0.86341900  1
  C  C13  1  0.85169100  0.70580200  0.47102800  1
  C  C14  1  0.48239400  0.96246700  0.19973400  1
  C  C15  1  0.51760600  0.03753300  0.80026600  1
  C  C16  1  0.14830900  0.29419800  0.52897200  1
  C  C17  1  0.18782000  0.37311500  0.13658100  1
  Ni  Ni18  1  0.74250300  0.97397700  0.88733900  1
  Ni  Ni19  1  0.97203000  0.67643900  0.33483200  1
  Ni  Ni20  1  0.88065400  0.47865900  0.86617100  1
  Ni  Ni21  1  0.78043300  0.85327600  0.46910300  1
  Ni  Ni22  1  0.92367400  0.36038700  0.44185200  1
  Ni  Ni23  1  0.94186200  0.30011000  0.18371700  1
  Ni  Ni24  1  0.58896500  0.69235300  0.77573100  1
  Ni  Ni25  1  0.60755600  0.63106900  0.51911700  1
  Ni  Ni26  1  0.69359200  0.65794700  0.99889400  1
  Ni  Ni27  1  0.55006900  0.81468400  0.19988400  1
  Ni  Ni28  1  0.63681900  0.00704700  0.66459700  1
  Ni  Ni29  1  0.27652300  0.96271400  0.85138000  1
  Ni  Ni30  1  0.72347700  0.03728600  0.14862000  1
  Ni  Ni31  1  0.36318100  0.99295300  0.33540300  1
  Ni  Ni32  1  0.44993100  0.18531600  0.80011600  1
  Ni  Ni33  1  0.30640800  0.34205300  0.00110600  1
  Ni  Ni34  1  0.39244400  0.36893100  0.48088300  1
  Ni  Ni35  1  0.41103500  0.30764700  0.22426900  1
  Ni  Ni36  1  0.05813800  0.69989000  0.81628300  1
  Ni  Ni37  1  0.07632600  0.63961300  0.55814800  1
  Ni  Ni38  1  0.21956700  0.14672400  0.53089700  1
  Ni  Ni39  1  0.11934600  0.52134100  0.13382900  1
  Ni  Ni40  1  0.02797000  0.32356100  0.66516800  1
  Ni  Ni41  1  0.25749700  0.02602300  0.11266100  1
  Cu  Cu42  1  0.93278900  0.19859600  0.93740700  1
  Cu  Cu43  1  0.74863600  0.13091100  0.39599700  1
  Cu  Cu44  1  0.59489000  0.54031800  0.26794900  1
  Cu  Cu45  1  0.40511000  0.45968200  0.73205100  1
  Cu  Cu46  1  0.25136400  0.86908900  0.60400300  1
  Cu  Cu47  1  0.06721100  0.80140400  0.06259300  1
