# generated using pymatgen
data_CuNiC11
_symmetry_space_group_name_H-M   'P 1'
_cell_length_a   6.64051000
_cell_length_b   8.65227667
_cell_length_c   10.05756986
_cell_angle_alpha   91.76971570
_cell_angle_beta   90.06388372
_cell_angle_gamma   90.21632291
_symmetry_Int_Tables_number   1
_chemical_formula_structural   CuNiC11
_chemical_formula_sum   'Cu4 Ni4 C44'
_cell_volume   577.58282172
_cell_formula_units_Z   4
loop_
 _symmetry_equiv_pos_site_id
 _symmetry_equiv_pos_as_xyz
  1  'x, y, z'
loop_
 _atom_site_type_symbol
 _atom_site_label
 _atom_site_symmetry_multiplicity
 _atom_site_fract_x
 _atom_site_fract_y
 _atom_site_fract_z
 _atom_site_occupancy
  C  C0  1  0.25891300  0.08561900  0.12114400  1
  C  C1  1  0.25075700  0.08457400  0.62268700  1
  C  C2  1  0.99636700  0.25367800  0.37700100  1
  C  C3  1  0.50167300  0.74607000  0.62375900  1
  C  C4  1  0.47571200  0.27678900  0.39209300  1
  C  C5  1  0.02019300  0.27379000  0.88840600  1
  C  C6  1  0.47946200  0.27577900  0.88882300  1
  C  C7  1  0.51696800  0.72953900  0.11287400  1
  C  C8  1  0.98284100  0.72773100  0.11250800  1
  C  C9  1  0.97937300  0.72724200  0.61099800  1
  C  C10  1  0.74293400  0.90573400  0.37126900  1
  C  C11  1  0.76140900  0.90536600  0.87611000  1
  C  C12  1  0.74965800  0.35112500  0.11102700  1
  C  C13  1  0.74348900  0.35571900  0.61509700  1
  C  C14  1  0.24555500  0.64789400  0.38443500  1
  C  C15  1  0.24965700  0.65050100  0.88826200  1
  Ni  Ni16  1  0.25591000  0.41726400  0.14377900  1
  Ni  Ni17  1  0.24110600  0.41441400  0.64857900  1
  Ni  Ni18  1  0.74399000  0.59210400  0.35041900  1
  Ni  Ni19  1  0.75548300  0.58920000  0.85558700  1
  Cu  Cu20  1  0.74947900  0.03986700  0.13217100  1
  Cu  Cu21  1  0.75806400  0.04493900  0.63729700  1
  Cu  Cu22  1  0.25828700  0.94696700  0.36359100  1
  Cu  Cu23  1  0.24909100  0.95174900  0.86699800  1
  C  C24  1  0.27973300  0.09567800  0.35693800  1
  C  C25  1  0.24608400  0.10180300  0.86153000  1
  C  C26  1  0.75216600  0.07968700  0.00885100  1
  C  C27  1  0.75310600  0.07778800  0.51189700  1
  C  C28  1  0.74784500  0.14896000  0.22569500  1
  C  C29  1  0.73706100  0.15564800  0.72748000  1
  C  C30  1  0.06677100  0.32304300  0.09895200  1
  C  C31  1  0.43698000  0.32374700  0.08632300  1
  C  C32  1  0.05728600  0.31388800  0.60776200  1
  C  C33  1  0.42832300  0.32646000  0.59342100  1
  C  C34  1  0.26924500  0.42582900  0.29979800  1
  C  C35  1  0.72886400  0.42803000  0.40854600  1
  C  C36  1  0.25362100  0.42668700  0.80549200  1
  C  C37  1  0.75239000  0.42124000  0.90765800  1
  C  C38  1  0.25339200  0.58506300  0.09467900  1
  C  C39  1  0.75542300  0.57498400  0.19466000  1
  C  C40  1  0.22776200  0.57953300  0.59455600  1
  C  C41  1  0.76896000  0.57674900  0.70026700  1
  C  C42  1  0.56192900  0.69581200  0.38928500  1
  C  C43  1  0.92938200  0.68446900  0.40442900  1
  C  C44  1  0.56812200  0.68550500  0.89874200  1
  C  C45  1  0.93471200  0.68622200  0.91191500  1
  C  C46  1  0.24125700  0.85941600  0.25727700  1
  C  C47  1  0.24833900  0.86432600  0.75939400  1
  C  C48  1  0.25210700  0.88148700  0.47864600  1
  C  C49  1  0.25283600  0.88364600  0.98009400  1
  C  C50  1  0.74779600  0.89642000  0.16554300  1
  C  C51  1  0.78213800  0.90422600  0.67525500  1
