# generated using pymatgen
data_Cu2NiC6
_symmetry_space_group_name_H-M   'P 1'
_cell_length_a   15.04507100
_cell_length_b   5.29785800
_cell_length_c   8.10223753
_cell_angle_alpha   70.30062983
_cell_angle_beta   90.00000000
_cell_angle_gamma   90.00000000
_symmetry_Int_Tables_number   1
_chemical_formula_structural   Cu2NiC6
_chemical_formula_sum   'Cu8 Ni4 C24'
_cell_volume   608.00615027
_cell_formula_units_Z   4
loop_
 _symmetry_equiv_pos_site_id
 _symmetry_equiv_pos_as_xyz
  1  'x, y, z'
loop_
 _atom_site_type_symbol
 _atom_site_label
 _atom_site_symmetry_multiplicity
 _atom_site_fract_x
 _atom_site_fract_y
 _atom_site_fract_z
 _atom_site_occupancy
  Ni  Ni0  1  0.56246800  0.61222700  0.73143600  1
  Ni  Ni1  1  0.06246800  0.38777300  0.76856400  1
  Ni  Ni2  1  0.93753200  0.61222700  0.23143600  1
  Ni  Ni3  1  0.43753200  0.38777300  0.26856400  1
  Cu  Cu4  1  0.16373400  0.01738400  0.56146400  1
  Cu  Cu5  1  0.34364600  0.96603700  0.70125500  1
  Cu  Cu6  1  0.84364600  0.03396300  0.79874500  1
  Cu  Cu7  1  0.66373400  0.98261600  0.93853600  1
  Cu  Cu8  1  0.33626600  0.01738400  0.06146300  1
  Cu  Cu9  1  0.15635400  0.96603700  0.20125500  1
  Cu  Cu10  1  0.65635400  0.03396300  0.29874500  1
  Cu  Cu11  1  0.83626600  0.98261600  0.43853600  1
  C  C12  1  0.63269700  0.78971100  0.45233400  1
  C  C13  1  0.24895400  0.84686100  0.66121200  1
  C  C14  1  0.08299400  0.84130500  0.62467400  1
  C  C15  1  0.40726100  0.73610900  0.76519000  1
  C  C16  1  0.16093400  0.28718400  0.58869600  1
  C  C17  1  0.81478900  0.92775100  0.64009100  1
  C  C18  1  0.90726100  0.26389100  0.73481000  1
  C  C19  1  0.58299400  0.15869500  0.87532600  1
  C  C20  1  0.74895400  0.15313900  0.83878800  1
  C  C21  1  0.31478900  0.07224900  0.85990900  1
  C  C22  1  0.13269700  0.21028900  0.04766600  1
  C  C23  1  0.66093400  0.71281600  0.91130400  1
  C  C24  1  0.33906600  0.28718400  0.08869600  1
  C  C25  1  0.86730300  0.78971100  0.95233400  1
  C  C26  1  0.68521100  0.92775100  0.14009100  1
  C  C27  1  0.25104600  0.84686100  0.16121200  1
  C  C28  1  0.41700600  0.84130500  0.12467400  1
  C  C29  1  0.09273900  0.73610900  0.26519000  1
  C  C30  1  0.18521100  0.07224900  0.35990900  1
  C  C31  1  0.83906600  0.71281600  0.41130400  1
  C  C32  1  0.59273900  0.26389100  0.23481000  1
  C  C33  1  0.91700600  0.15869500  0.37532600  1
  C  C34  1  0.75104600  0.15313900  0.33878800  1
  C  C35  1  0.36730300  0.21028900  0.54766600  1
