# generated using pymatgen
data_Cu3Ni3C22
_symmetry_space_group_name_H-M   'P 1'
_cell_length_a   6.01818176
_cell_length_b   10.31577541
_cell_length_c   10.56219022
_cell_angle_alpha   89.90794911
_cell_angle_beta   90.00966787
_cell_angle_gamma   90.00083604
_symmetry_Int_Tables_number   1
_chemical_formula_structural   Cu3Ni3C22
_chemical_formula_sum   'Cu6 Ni6 C44'
_cell_volume   655.72327000
_cell_formula_units_Z   2
loop_
 _symmetry_equiv_pos_site_id
 _symmetry_equiv_pos_as_xyz
  1  'x, y, z'
loop_
 _atom_site_type_symbol
 _atom_site_label
 _atom_site_symmetry_multiplicity
 _atom_site_fract_x
 _atom_site_fract_y
 _atom_site_fract_z
 _atom_site_occupancy
  C  C0  1  0.49994900  0.90172000  0.17070700  1
  C  C1  1  0.99994900  0.90172000  0.67071400  1
  C  C2  1  0.00001000  0.99014800  0.00828500  1
  C  C3  1  0.50001200  0.99015400  0.50827500  1
  C  C4  1  0.99994900  0.49181000  0.00036500  1
  C  C5  1  0.49995200  0.49179700  0.50036100  1
  C  C6  1  0.00003200  0.40015200  0.33101300  1
  C  C7  1  0.50003200  0.40017800  0.83102300  1
  Ni  Ni8  1  0.99987000  0.72161500  0.17651700  1
  Ni  Ni9  1  0.49986700  0.72161000  0.67650500  1
  Ni  Ni10  1  0.74873600  0.22195100  0.08808600  1
  Ni  Ni11  1  0.24874400  0.22194600  0.58807800  1
  Ni  Ni12  1  0.25143500  0.22178800  0.08806900  1
  Ni  Ni13  1  0.75142900  0.22178000  0.58806000  1
  Cu  Cu14  1  0.00003100  0.21243900  0.83158000  1
  Cu  Cu15  1  0.25004100  0.71146200  0.41734800  1
  Cu  Cu16  1  0.75009200  0.71143900  0.41738800  1
  Cu  Cu17  1  0.50001300  0.21244400  0.33157400  1
  Cu  Cu18  1  0.74997200  0.71153700  0.91732400  1
  Cu  Cu19  1  0.25013800  0.71149300  0.91736600  1
  C  C20  1  0.49984900  0.49370600  0.16609800  1
  C  C21  1  0.99983900  0.49367300  0.66611400  1
  C  C22  1  0.00001500  0.99386800  0.35953400  1
  C  C23  1  0.50001700  0.99387800  0.85954300  1
  C  C24  1  0.50002300  0.31798200  0.00442300  1
  C  C25  1  0.00002200  0.31798500  0.50443100  1
  C  C26  1  0.49995300  0.11486000  0.15640900  1
  C  C27  1  0.99995300  0.11486800  0.65641000  1
  C  C28  1  0.99996200  0.31139100  0.00128100  1
  C  C29  1  0.49996100  0.31139000  0.50128100  1
  C  C30  1  0.50012200  0.80401400  0.49758100  1
  C  C31  1  0.00011900  0.80402200  0.99756200  1
  C  C32  1  0.00009600  0.11954200  0.14977700  1
  C  C33  1  0.50009500  0.11954800  0.64977400  1
  C  C34  1  0.49994600  0.57855600  0.33125300  1
  C  C35  1  0.99994500  0.57856500  0.83125700  1
  C  C36  1  0.99996500  0.61533500  0.33717400  1
  C  C37  1  0.49996500  0.61534300  0.83713400  1
  C  C38  1  0.00002600  0.85773300  0.48840100  1
  C  C39  1  0.50002400  0.85772500  0.98840000  1
  C  C40  1  0.76898300  0.60760900  0.07616200  1
  C  C41  1  0.26900300  0.60759600  0.57619700  1
  C  C42  1  0.23115700  0.60746600  0.07626500  1
  C  C43  1  0.73114500  0.60745600  0.57629500  1
  C  C44  1  0.73641700  0.34366100  0.22584500  1
  C  C45  1  0.23641900  0.34367400  0.72584500  1
  C  C46  1  0.26374200  0.34384100  0.22579200  1
  C  C47  1  0.76374300  0.34385600  0.72579200  1
  C  C48  1  0.23126200  0.81609000  0.25516900  1
  C  C49  1  0.73127800  0.81610600  0.75514300  1
  C  C50  1  0.76866000  0.81604900  0.25516500  1
  C  C51  1  0.26864500  0.81606000  0.75514400  1
  C  C52  1  0.25161000  0.09075000  0.43216600  1
  C  C53  1  0.75161600  0.09074300  0.93217300  1
  C  C54  1  0.74838700  0.09078200  0.43218400  1
  C  C55  1  0.24838400  0.09077500  0.93219300  1
