# generated using pymatgen
data_CuNiC13
_symmetry_space_group_name_H-M   'P 1'
_cell_length_a   7.33360200
_cell_length_b   7.94267708
_cell_length_c   10.27503014
_cell_angle_alpha   112.63328730
_cell_angle_beta   105.17176470
_cell_angle_gamma   87.36012857
_symmetry_Int_Tables_number   1
_chemical_formula_structural   CuNiC13
_chemical_formula_sum   'Cu3 Ni3 C39'
_cell_volume   532.15315367
_cell_formula_units_Z   3
loop_
 _symmetry_equiv_pos_site_id
 _symmetry_equiv_pos_as_xyz
  1  'x, y, z'
loop_
 _atom_site_type_symbol
 _atom_site_label
 _atom_site_symmetry_multiplicity
 _atom_site_fract_x
 _atom_site_fract_y
 _atom_site_fract_z
 _atom_site_occupancy
  C  C0  1  0.68273600  0.93002000  0.50118700  1
  C  C1  1  0.98295700  0.40251900  0.16348500  1
  C  C2  1  0.64947300  0.73778800  0.83331700  1
  Ni  Ni3  1  0.00969400  0.99925200  0.00033900  1
  Ni  Ni4  1  0.33106100  0.66642200  0.33269200  1
  Ni  Ni5  1  0.66405200  0.33305700  0.66558600  1
  Cu  Cu6  1  0.49660500  0.49958300  0.00194500  1
  Cu  Cu7  1  0.16773100  0.83330200  0.66636900  1
  Cu  Cu8  1  0.83461600  0.16648700  0.33320400  1
  C  C9  1  0.43166200  0.93130600  0.18429000  1
  C  C10  1  0.90388900  0.73790300  0.14912700  1
  C  C11  1  0.23822000  0.40175300  0.48276600  1
  C  C12  1  0.75895700  0.59735200  0.51814100  1
  C  C13  1  0.09063700  0.26692200  0.85014500  1
  C  C14  1  0.57744400  0.06887900  0.81553000  1
  C  C15  1  0.45736400  0.76361200  0.05369300  1
  C  C16  1  0.88714300  0.78295900  0.01217000  1
  C  C17  1  0.10593800  0.66451100  0.19305400  1
  C  C18  1  0.44211900  0.88344000  0.32044800  1
  C  C19  1  0.87853700  0.90285900  0.28033500  1
  C  C20  1  0.77359300  0.56832500  0.11049700  1
  C  C21  1  0.22567900  0.44866000  0.34498500  1
  C  C22  1  0.55901300  0.67206200  0.47017400  1
  C  C23  1  0.44175700  0.90248800  0.77562300  1
  C  C24  1  0.22434000  0.99507400  0.13688400  1
  C  C25  1  0.89209700  0.76517800  0.55742400  1
  C  C26  1  0.21687300  0.57181000  0.61267400  1
  C  C27  1  0.78889200  0.43056000  0.39107900  1
  C  C28  1  0.10282300  0.23912000  0.44163500  1
  C  C29  1  0.77533900  0.99048900  0.86298200  1
  C  C30  1  0.56467200  0.09525900  0.22501300  1
  C  C31  1  0.44328900  0.33477700  0.52949400  1
  C  C32  1  0.75908400  0.56040400  0.65636400  1
  C  C33  1  0.22944500  0.42767400  0.89331500  1
  C  C34  1  0.11713900  0.09518200  0.72452600  1
  C  C35  1  0.57558100  0.10492000  0.67600900  1
  C  C36  1  0.88795400  0.33530700  0.79956400  1
  C  C37  1  0.08514300  0.22677000  0.98813300  1
  C  C38  1  0.55205400  0.23819500  0.94184700  1
  C  C39  1  0.22542400  0.82910100  0.48683600  1
  C  C40  1  0.43931800  0.50266400  0.17984100  1
  C  C41  1  0.10984200  0.83615800  0.84498200  1
  C  C42  1  0.89570400  0.17056300  0.15594500  1
  C  C43  1  0.55946300  0.50370500  0.82351300  1
  C  C44  1  0.77288600  0.16191200  0.51002100  1
