# generated using pymatgen
data_CuNi3C10
_symmetry_space_group_name_H-M   'P 1'
_cell_length_a   8.42309400
_cell_length_b   8.42309400
_cell_length_c   8.51480000
_cell_angle_alpha   90.00000000
_cell_angle_beta   90.00000000
_cell_angle_gamma   90.00000000
_symmetry_Int_Tables_number   1
_chemical_formula_structural   CuNi3C10
_chemical_formula_sum   'Cu4 Ni12 C40'
_cell_volume   604.11239451
_cell_formula_units_Z   4
loop_
 _symmetry_equiv_pos_site_id
 _symmetry_equiv_pos_as_xyz
  1  'x, y, z'
loop_
 _atom_site_type_symbol
 _atom_site_label
 _atom_site_symmetry_multiplicity
 _atom_site_fract_x
 _atom_site_fract_y
 _atom_site_fract_z
 _atom_site_occupancy
  C  C0  1  0.75233400  0.50568700  0.00213200  1
  C  C1  1  0.99743100  0.74885700  0.24745000  1
  C  C2  1  0.50568700  0.24766600  0.25213200  1
  C  C3  1  0.74885700  0.00256900  0.49745000  1
  C  C4  1  0.24766600  0.49431300  0.50213200  1
  C  C5  1  0.00256900  0.25114300  0.74745000  1
  C  C6  1  0.49431300  0.75233400  0.75213200  1
  C  C7  1  0.25114300  0.99743100  0.99745000  1
  Ni  Ni8  1  0.87812200  0.12956100  0.12310300  1
  Ni  Ni9  1  0.13080400  0.37412700  0.12676200  1
  Ni  Ni10  1  0.37638700  0.62393300  0.12632900  1
  Ni  Ni11  1  0.12956100  0.12187800  0.37310300  1
  Ni  Ni12  1  0.37412700  0.86919600  0.37676200  1
  Ni  Ni13  1  0.62393300  0.62361300  0.37632900  1
  Ni  Ni14  1  0.12187800  0.87043900  0.62310300  1
  Ni  Ni15  1  0.86919600  0.62587300  0.62676200  1
  Ni  Ni16  1  0.62361300  0.37606700  0.62632900  1
  Ni  Ni17  1  0.87043900  0.87812200  0.87310300  1
  Ni  Ni18  1  0.62587300  0.13080400  0.87676200  1
  Ni  Ni19  1  0.37606700  0.37638700  0.87632900  1
  Cu  Cu20  1  0.62846900  0.87498600  0.12773000  1
  Cu  Cu21  1  0.87498600  0.37153100  0.37773000  1
  Cu  Cu22  1  0.37153100  0.12501400  0.62773000  1
  Cu  Cu23  1  0.12501400  0.62846900  0.87773000  1
  C  C24  1  0.87146800  0.89886400  0.10945900  1
  C  C25  1  0.64073400  0.11304000  0.11245100  1
  C  C26  1  0.37786500  0.39606400  0.11330800  1
  C  C27  1  0.88150000  0.35232700  0.13472800  1
  C  C28  1  0.13975600  0.61246800  0.11472000  1
  C  C29  1  0.11569800  0.13506900  0.13863100  1
  C  C30  1  0.38241500  0.85041800  0.13523900  1
  C  C31  1  0.61513200  0.63592000  0.14234600  1
  C  C32  1  0.89886400  0.12853200  0.35945900  1
  C  C33  1  0.11304000  0.35926600  0.36245100  1
  C  C34  1  0.39606400  0.62213500  0.36330800  1
  C  C35  1  0.35232700  0.11850000  0.38472800  1
  C  C36  1  0.61246800  0.86024400  0.36472000  1
  C  C37  1  0.13506900  0.88430200  0.38863100  1
  C  C38  1  0.85041800  0.61758500  0.38523900  1
  C  C39  1  0.63592000  0.38486800  0.39234600  1
  C  C40  1  0.12853200  0.10113600  0.60945900  1
  C  C41  1  0.35926600  0.88696000  0.61245100  1
  C  C42  1  0.62213500  0.60393600  0.61330800  1
  C  C43  1  0.11850000  0.64767300  0.63472800  1
  C  C44  1  0.86024400  0.38753200  0.61472000  1
  C  C45  1  0.88430200  0.86493100  0.63863100  1
  C  C46  1  0.61758500  0.14958200  0.63523900  1
  C  C47  1  0.38486800  0.36408000  0.64234600  1
  C  C48  1  0.10113600  0.87146800  0.85945900  1
  C  C49  1  0.88696000  0.64073400  0.86245100  1
  C  C50  1  0.60393600  0.37786500  0.86330800  1
  C  C51  1  0.64767300  0.88150000  0.88472800  1
  C  C52  1  0.38753200  0.13975600  0.86472000  1
  C  C53  1  0.86493100  0.11569800  0.88863100  1
  C  C54  1  0.14958200  0.38241500  0.88523900  1
  C  C55  1  0.36408000  0.61513200  0.89234600  1
