# generated using pymatgen
data_CuNi4C15
_symmetry_space_group_name_H-M   'P 1'
_cell_length_a   21.15497500
_cell_length_b   8.32046900
_cell_length_c   9.55309662
_cell_angle_alpha   89.16452085
_cell_angle_beta   90.00000000
_cell_angle_gamma   90.00000000
_symmetry_Int_Tables_number   1
_chemical_formula_structural   CuNi4C15
_chemical_formula_sum   'Cu4 Ni16 C60'
_cell_volume   1681.35074187
_cell_formula_units_Z   4
loop_
 _symmetry_equiv_pos_site_id
 _symmetry_equiv_pos_as_xyz
  1  'x, y, z'
loop_
 _atom_site_type_symbol
 _atom_site_label
 _atom_site_symmetry_multiplicity
 _atom_site_fract_x
 _atom_site_fract_y
 _atom_site_fract_z
 _atom_site_occupancy
  C  C0  1  0.41213500  0.18671000  0.51365400  1
  C  C1  1  0.91213500  0.31329000  0.48634600  1
  C  C2  1  0.58786500  0.81329000  0.48634600  1
  C  C3  1  0.08786500  0.68671000  0.51365400  1
  Ni  Ni4  1  0.62827700  0.25509700  0.22204900  1
  Ni  Ni5  1  0.12827700  0.24490300  0.77795100  1
  Ni  Ni6  1  0.37172300  0.74490300  0.77795100  1
  Ni  Ni7  1  0.87172300  0.75509700  0.22204900  1
  Ni  Ni8  1  0.56571900  0.15160000  0.73614200  1
  Ni  Ni9  1  0.06571900  0.34840000  0.26385800  1
  Ni  Ni10  1  0.43428100  0.84840000  0.26385800  1
  Ni  Ni11  1  0.93428100  0.65160000  0.73614200  1
  Ni  Ni12  1  0.37457200  0.41031600  0.87300100  1
  Ni  Ni13  1  0.87457200  0.08968400  0.12699900  1
  Ni  Ni14  1  0.62542800  0.58968400  0.12699900  1
  Ni  Ni15  1  0.12542800  0.91031600  0.87300100  1
  Ni  Ni16  1  0.41429700  0.47852300  0.23854500  1
  Ni  Ni17  1  0.91429700  0.02147700  0.76145500  1
  Ni  Ni18  1  0.58570300  0.52147700  0.76145500  1
  Ni  Ni19  1  0.08570300  0.97852300  0.23854500  1
  Cu  Cu20  1  0.45490500  0.40257700  0.02471600  1
  Cu  Cu21  1  0.95490500  0.09742300  0.97528400  1
  Cu  Cu22  1  0.54509500  0.59742300  0.97528400  1
  Cu  Cu23  1  0.04509500  0.90257700  0.02471600  1
  C  C24  1  0.65241700  0.40063100  0.12458200  1
  C  C25  1  0.15241700  0.09936900  0.87541800  1
  C  C26  1  0.34758300  0.59936900  0.87541800  1
  C  C27  1  0.84758300  0.90063100  0.12458200  1
  C  C28  1  0.55729000  0.34449000  0.73647300  1
  C  C29  1  0.05729000  0.15551000  0.26352700  1
  C  C30  1  0.44271000  0.65551000  0.26352700  1
  C  C31  1  0.94271000  0.84449000  0.73647300  1
  C  C32  1  0.59115200  0.30118500  0.34452800  1
  C  C33  1  0.09115200  0.19881500  0.65547200  1
  C  C34  1  0.40884800  0.69881500  0.65547200  1
  C  C35  1  0.90884800  0.80118500  0.34452800  1
  C  C36  1  0.64888000  0.09773100  0.17252600  1
  C  C37  1  0.14888000  0.40226900  0.82747400  1
  C  C38  1  0.35112000  0.90226900  0.82747400  1
  C  C39  1  0.85112000  0.59773100  0.17252600  1
  C  C40  1  0.59444400  0.08158600  0.86252900  1
  C  C41  1  0.09444400  0.41841400  0.13747100  1
  C  C42  1  0.40555600  0.91841400  0.13747100  1
  C  C43  1  0.90555600  0.58158600  0.86252900  1
  C  C44  1  0.50620700  0.09190300  0.66693600  1
  C  C45  1  0.00620700  0.40809700  0.33306400  1
  C  C46  1  0.49379300  0.90809700  0.33306400  1
  C  C47  1  0.99379300  0.59190300  0.66693600  1
  C  C48  1  0.38460800  0.36183100  0.72451300  1
  C  C49  1  0.88460800  0.13816900  0.27548700  1
  C  C50  1  0.61539200  0.63816900  0.27548700  1
  C  C51  1  0.11539200  0.86183100  0.72451300  1
  C  C52  1  0.34056600  0.30734000  0.97871400  1
  C  C53  1  0.84056600  0.19266000  0.02128600  1
  C  C54  1  0.65943400  0.69266000  0.02128600  1
  C  C55  1  0.15943400  0.80734000  0.97871400  1
  C  C56  1  0.34577400  0.46201200  0.26487800  1
  C  C57  1  0.84577400  0.03798800  0.73512200  1
  C  C58  1  0.65422600  0.53798800  0.73512200  1
  C  C59  1  0.15422600  0.96201200  0.26487800  1
  C  C60  1  0.46080500  0.36343800  0.30901200  1
  C  C61  1  0.96080500  0.13656200  0.69098800  1
  C  C62  1  0.53919500  0.63656200  0.69098800  1
  C  C63  1  0.03919500  0.86343800  0.30901200  1
  C  C64  1  0.28264600  0.58838800  0.53564400  1
  C  C65  1  0.78264600  0.91161200  0.46435600  1
  C  C66  1  0.71735400  0.41161200  0.46435600  1
  C  C67  1  0.21735400  0.08838800  0.53564400  1
  C  C68  1  0.24798000  0.02050700  0.62920700  1
  C  C69  1  0.74798000  0.47949300  0.37079300  1
  C  C70  1  0.75202000  0.97949300  0.37079300  1
  C  C71  1  0.25202000  0.52050700  0.62920700  1
  C  C72  1  0.32275400  0.88880000  0.38978000  1
  C  C73  1  0.82275400  0.61120000  0.61022000  1
  C  C74  1  0.67724600  0.11120000  0.61022000  1
  C  C75  1  0.17724600  0.38880000  0.38978000  1
  C  C76  1  0.38584700  0.88156900  0.40962600  1
  C  C77  1  0.88584700  0.61843100  0.59037400  1
  C  C78  1  0.61415300  0.11843100  0.59037400  1
  C  C79  1  0.11415300  0.38156900  0.40962600  1
