# generated using pymatgen
data_CuNi2C7
_symmetry_space_group_name_H-M   'P 1'
_cell_length_a   5.82695675
_cell_length_b   5.82695675
_cell_length_c   14.81332612
_cell_angle_alpha   84.42180982
_cell_angle_beta   84.42180982
_cell_angle_gamma   102.90392342
_symmetry_Int_Tables_number   1
_chemical_formula_structural   CuNi2C7
_chemical_formula_sum   'Cu4 Ni8 C28'
_cell_volume   484.26034652
_cell_formula_units_Z   4
loop_
 _symmetry_equiv_pos_site_id
 _symmetry_equiv_pos_as_xyz
  1  'x, y, z'
loop_
 _atom_site_type_symbol
 _atom_site_label
 _atom_site_symmetry_multiplicity
 _atom_site_fract_x
 _atom_site_fract_y
 _atom_site_fract_z
 _atom_site_occupancy
  C  C0  1  0.00000000  0.50000000  0.00000000  1
  C  C1  1  0.50000000  0.00000000  0.50000000  1
  C  C2  1  0.68286000  0.81450200  0.14895600  1
  C  C3  1  0.18549800  0.31714000  0.35104400  1
  C  C4  1  0.31714000  0.18549800  0.85104400  1
  C  C5  1  0.81450200  0.68286000  0.64895600  1
  Ni  Ni6  1  0.09585200  0.71995500  0.14846800  1
  Ni  Ni7  1  0.28004500  0.90414800  0.35153200  1
  Ni  Ni8  1  0.90414800  0.28004500  0.85153200  1
  Ni  Ni9  1  0.71995500  0.09585200  0.64846800  1
  Ni  Ni10  1  0.85669200  0.32317700  0.21167200  1
  Ni  Ni11  1  0.67682300  0.14330800  0.28832800  1
  Ni  Ni12  1  0.14330800  0.67682300  0.78832800  1
  Ni  Ni13  1  0.32317700  0.85669200  0.71167200  1
  Cu  Cu14  1  0.37505000  0.19249900  0.10458900  1
  Cu  Cu15  1  0.80750100  0.62495000  0.39541100  1
  Cu  Cu16  1  0.62495000  0.80750100  0.89541100  1
  Cu  Cu17  1  0.19249900  0.37505000  0.60458900  1
  C  C18  1  0.94460000  0.61416800  0.13739100  1
  C  C19  1  0.38583200  0.05540000  0.36260900  1
  C  C20  1  0.05540000  0.38583200  0.86260900  1
  C  C21  1  0.61416800  0.94460000  0.63739100  1
  C  C22  1  0.36829700  0.94796400  0.16051900  1
  C  C23  1  0.05203600  0.63170300  0.33948100  1
  C  C24  1  0.63170300  0.05203600  0.83948100  1
  C  C25  1  0.94796400  0.36829700  0.66051900  1
  C  C26  1  0.38327000  0.37090000  0.16911600  1
  C  C27  1  0.62910000  0.61672900  0.33088400  1
  C  C28  1  0.61672900  0.62910000  0.83088400  1
  C  C29  1  0.37090000  0.38327000  0.66911600  1
  C  C30  1  0.15138100  0.15064300  0.06157800  1
  C  C31  1  0.84935700  0.84861900  0.43842200  1
  C  C32  1  0.84861900  0.84935700  0.93842200  1
  C  C33  1  0.15064300  0.15138100  0.56157800  1
  C  C34  1  0.58428700  0.24966400  0.03427800  1
  C  C35  1  0.75033600  0.41571300  0.46572200  1
  C  C36  1  0.41571300  0.75033600  0.96572200  1
  C  C37  1  0.24966400  0.58428700  0.53427800  1
  C  C38  1  0.83185100  0.16814900  0.25000000  1
  C  C39  1  0.16814900  0.83185100  0.75000000  1
