# generated using pymatgen
data_Cu14Ni2C13
_symmetry_space_group_name_H-M   'P 1'
_cell_length_a   7.72672833
_cell_length_b   7.72672833
_cell_length_c   11.25616200
_cell_angle_alpha   90.00000000
_cell_angle_beta   90.00000000
_cell_angle_gamma   116.08840066
_symmetry_Int_Tables_number   1
_chemical_formula_structural   Cu14Ni2C13
_chemical_formula_sum   'Cu28 Ni4 C26'
_cell_volume   603.55152941
_cell_formula_units_Z   2
loop_
 _symmetry_equiv_pos_site_id
 _symmetry_equiv_pos_as_xyz
  1  'x, y, z'
loop_
 _atom_site_type_symbol
 _atom_site_label
 _atom_site_symmetry_multiplicity
 _atom_site_fract_x
 _atom_site_fract_y
 _atom_site_fract_z
 _atom_site_occupancy
  C  C0  1  0.12962300  0.12962300  0.24800400  1
  C  C1  1  0.87037700  0.87037700  0.74800400  1
  C  C2  1  0.60400000  0.05407200  0.67268600  1
  C  C3  1  0.94592800  0.39600000  0.17268600  1
  C  C4  1  0.85177100  0.31030300  0.30332300  1
  C  C5  1  0.68969700  0.14822900  0.80332300  1
  C  C6  1  0.65222400  0.18179700  0.98995400  1
  C  C7  1  0.81820300  0.34777600  0.48995400  1
  C  C8  1  0.53559900  0.13117500  0.49925800  1
  C  C9  1  0.86882500  0.46440100  0.99925800  1
  C  C10  1  0.69261800  0.42918000  0.42255400  1
  C  C11  1  0.57082000  0.30738200  0.92255400  1
  C  C12  1  0.89750800  0.62382900  0.09204000  1
  C  C13  1  0.37617100  0.10249200  0.59204000  1
  C  C14  1  0.10249200  0.37617100  0.59204000  1
  C  C15  1  0.62382900  0.89750800  0.09204000  1
  C  C16  1  0.42918000  0.69261800  0.42255400  1
  C  C17  1  0.30738200  0.57082000  0.92255400  1
  C  C18  1  0.13117500  0.53559900  0.49925800  1
  C  C19  1  0.46440100  0.86882500  0.99925800  1
  C  C20  1  0.18179700  0.65222400  0.98995400  1
  C  C21  1  0.34777600  0.81820300  0.48995400  1
  C  C22  1  0.14822900  0.68969700  0.80332300  1
  C  C23  1  0.31030300  0.85177100  0.30332300  1
  C  C24  1  0.39600000  0.94592800  0.17268600  1
  C  C25  1  0.05407200  0.60400000  0.67268600  1
  Ni  Ni26  1  0.52511100  0.52511100  0.66009300  1
  Ni  Ni27  1  0.47488900  0.47488900  0.16009300  1
  Ni  Ni28  1  0.79281900  0.79281900  0.35881600  1
  Ni  Ni29  1  0.20718100  0.20718100  0.85881600  1
  Cu  Cu30  1  0.93894200  0.30527700  0.23899900  1
  Cu  Cu31  1  0.69472300  0.06105800  0.73899900  1
  Cu  Cu32  1  0.68577600  0.28294900  0.92726800  1
  Cu  Cu33  1  0.71705100  0.31422400  0.42726800  1
  Cu  Cu34  1  0.95990000  0.54585900  0.06268300  1
  Cu  Cu35  1  0.45414100  0.04010000  0.56268300  1
  Cu  Cu36  1  0.47683200  0.31135200  0.17624800  1
  Cu  Cu37  1  0.68864800  0.52316800  0.67624800  1
  Cu  Cu38  1  0.94941900  0.78386300  0.33377900  1
  Cu  Cu39  1  0.21613700  0.05058100  0.83377900  1
  Cu  Cu40  1  0.65323100  0.65323100  0.40442200  1
  Cu  Cu41  1  0.78548400  0.78548400  0.89501000  1
  Cu  Cu42  1  0.62066600  0.62066600  0.13134000  1
  Cu  Cu43  1  0.04643000  0.04643000  0.09949300  1
  Cu  Cu44  1  0.21451600  0.21451600  0.39501000  1
  Cu  Cu45  1  0.37933400  0.37933400  0.63134000  1
  Cu  Cu46  1  0.34676900  0.34676900  0.90442200  1
  Cu  Cu47  1  0.95357000  0.95357000  0.59949300  1
  Cu  Cu48  1  0.78386300  0.94941900  0.33377900  1
  Cu  Cu49  1  0.05058100  0.21613700  0.83377900  1
  Cu  Cu50  1  0.52316800  0.68864800  0.67624800  1
  Cu  Cu51  1  0.31135200  0.47683200  0.17624800  1
  Cu  Cu52  1  0.54585900  0.95990000  0.06268300  1
  Cu  Cu53  1  0.04010000  0.45414100  0.56268300  1
  Cu  Cu54  1  0.28294900  0.68577600  0.92726800  1
  Cu  Cu55  1  0.31422400  0.71705100  0.42726800  1
  Cu  Cu56  1  0.30527700  0.93894200  0.23899900  1
  Cu  Cu57  1  0.06105800  0.69472300  0.73899900  1
