# generated using pymatgen
data_Cu4Ni3C7
_symmetry_space_group_name_H-M   'P 1'
_cell_length_a   11.04581284
_cell_length_b   11.04581284
_cell_length_c   11.04581284
_cell_angle_alpha   164.08584790
_cell_angle_beta   157.31158665
_cell_angle_gamma   27.83575934
_symmetry_Int_Tables_number   1
_chemical_formula_structural   Cu4Ni3C7
_chemical_formula_sum   'Cu4 Ni3 C7'
_cell_volume   142.48071999
_cell_formula_units_Z   1
loop_
 _symmetry_equiv_pos_site_id
 _symmetry_equiv_pos_as_xyz
  1  'x, y, z'
loop_
 _atom_site_type_symbol
 _atom_site_label
 _atom_site_symmetry_multiplicity
 _atom_site_fract_x
 _atom_site_fract_y
 _atom_site_fract_z
 _atom_site_occupancy
  Ni  Ni0  1  0.64155100  0.63773600  0.99618500  1
  Ni  Ni1  1  0.50000000  0.50153800  0.00153800  1
  Ni  Ni2  1  0.35844900  0.35463400  0.99618500  1
  Cu  Cu3  1  0.92747500  0.92795000  0.00047500  1
  Cu  Cu4  1  0.07252500  0.07300000  0.00047500  1
  Cu  Cu5  1  0.78340100  0.79489800  0.01149700  1
  Cu  Cu6  1  0.21659900  0.22809600  0.01149700  1
  C  C7  1  0.00000000  0.48583000  0.48583000  1
  C  C8  1  0.85500100  0.37515100  0.52014900  1
  C  C9  1  0.71030100  0.19745800  0.48715800  1
  C  C10  1  0.42851900  0.92867200  0.50015300  1
  C  C11  1  0.57148100  0.07163400  0.50015300  1
  C  C12  1  0.14499900  0.66514800  0.52014900  1
  C  C13  1  0.28969900  0.77685700  0.48715800  1
