# generated using pymatgen
data_Cu2Ni2C5
_symmetry_space_group_name_H-M   'P 1'
_cell_length_a   5.45966121
_cell_length_b   11.24878026
_cell_length_c   8.65219936
_cell_angle_alpha   67.69621441
_cell_angle_beta   101.23323422
_cell_angle_gamma   98.65005091
_symmetry_Int_Tables_number   1
_chemical_formula_structural   Cu2Ni2C5
_chemical_formula_sum   'Cu8 Ni8 C20'
_cell_volume   480.48281538
_cell_formula_units_Z   4
loop_
 _symmetry_equiv_pos_site_id
 _symmetry_equiv_pos_as_xyz
  1  'x, y, z'
loop_
 _atom_site_type_symbol
 _atom_site_label
 _atom_site_symmetry_multiplicity
 _atom_site_fract_x
 _atom_site_fract_y
 _atom_site_fract_z
 _atom_site_occupancy
  Ni  Ni0  1  0.27781800  0.37304700  0.02675000  1
  Ni  Ni1  1  0.27779800  0.87312500  0.02667800  1
  Ni  Ni2  1  0.72216000  0.12692900  0.97325200  1
  Ni  Ni3  1  0.72220400  0.62689500  0.97329300  1
  Ni  Ni4  1  0.82679200  0.27576600  0.30512900  1
  Ni  Ni5  1  0.82677100  0.77580400  0.30513900  1
  Ni  Ni6  1  0.17320300  0.22424900  0.69484500  1
  Ni  Ni7  1  0.17321700  0.72419100  0.69486800  1
  Cu  Cu8  1  0.80067900  0.46283000  0.45476400  1
  Cu  Cu9  1  0.80069800  0.96281400  0.45485900  1
  Cu  Cu10  1  0.19929300  0.03716700  0.54520300  1
  Cu  Cu11  1  0.19922700  0.53717100  0.54516200  1
  Cu  Cu12  1  0.41370400  0.35088200  0.41240400  1
  Cu  Cu13  1  0.41377800  0.85087400  0.41249400  1
  Cu  Cu14  1  0.58624500  0.14911200  0.58753700  1
  Cu  Cu15  1  0.58621800  0.64911900  0.58752700  1
  C  C16  1  0.29147600  0.57005600  0.24527300  1
  C  C17  1  0.70870900  0.93017000  0.75466400  1
  C  C18  1  0.29144900  0.06983100  0.24546200  1
  C  C19  1  0.70861000  0.43000200  0.75470800  1
  C  C20  1  0.57901100  0.47924600  0.23800300  1
  C  C21  1  0.57904200  0.97924500  0.23803700  1
  C  C22  1  0.42100500  0.02075400  0.76197100  1
  C  C23  1  0.42093600  0.52072400  0.76196500  1
  C  C24  1  0.19936500  0.15564400  0.99592100  1
  C  C25  1  0.19939800  0.65572100  0.99590800  1
  C  C26  1  0.80061700  0.34430900  0.00407600  1
  C  C27  1  0.80064300  0.84431500  0.00411800  1
  C  C28  1  0.12367600  0.41920800  0.42449300  1
  C  C29  1  0.12368700  0.91916600  0.42458400  1
  C  C30  1  0.87634400  0.08081500  0.57547700  1
  C  C31  1  0.87625400  0.58080100  0.57543100  1
  C  C32  1  0.34603200  0.19907400  0.35631700  1
  C  C33  1  0.34605300  0.69909500  0.35642300  1
  C  C34  1  0.65393700  0.30089800  0.64362200  1
  C  C35  1  0.65395300  0.80095000  0.64364000  1
