# generated using pymatgen
data_Cu3Ni2C23
_symmetry_space_group_name_H-M   'P 1'
_cell_length_a   6.05850015
_cell_length_b   6.05850015
_cell_length_c   9.92249305
_cell_angle_alpha   88.67708434
_cell_angle_beta   88.67708434
_cell_angle_gamma   61.09337734
_symmetry_Int_Tables_number   1
_chemical_formula_structural   Cu3Ni2C23
_chemical_formula_sum   'Cu3 Ni2 C23'
_cell_volume   318.71740326
_cell_formula_units_Z   1
loop_
 _symmetry_equiv_pos_site_id
 _symmetry_equiv_pos_as_xyz
  1  'x, y, z'
loop_
 _atom_site_type_symbol
 _atom_site_label
 _atom_site_symmetry_multiplicity
 _atom_site_fract_x
 _atom_site_fract_y
 _atom_site_fract_z
 _atom_site_occupancy
  C  C0  1  0.33731200  0.33731200  0.09719700  1
  C  C1  1  0.98604000  0.98604000  0.00144600  1
  C  C2  1  0.97858500  0.97858500  0.50622300  1
  C  C3  1  0.66564600  0.66564600  0.62280900  1
  Ni  Ni4  1  0.34770800  0.34770800  0.51163500  1
  Ni  Ni5  1  0.67056800  0.67056800  0.00468900  1
  Cu  Cu6  1  0.16888200  0.16888200  0.78479200  1
  Cu  Cu7  1  0.84342600  0.34380500  0.28588900  1
  Cu  Cu8  1  0.34380500  0.84342600  0.28588900  1
  C  C9  1  0.65824700  0.17388500  0.78739200  1
  C  C10  1  0.17388500  0.65824700  0.78739200  1
  C  C11  1  0.83175400  0.83175400  0.28049000  1
  C  C12  1  0.68838700  0.16623700  0.38793500  1
  C  C13  1  0.48402400  0.48402400  0.67326900  1
  C  C14  1  0.32609300  0.32609300  0.89919000  1
  C  C15  1  0.99780300  0.99780300  0.68922400  1
  C  C16  1  0.01388900  0.01388900  0.18165200  1
  C  C17  1  0.16623700  0.68838700  0.38793500  1
  C  C18  1  0.47751900  0.02974500  0.66984200  1
  C  C19  1  0.02974500  0.47751900  0.66984200  1
  C  C20  1  0.82927600  0.82927600  0.89956400  1
  C  C21  1  0.16376600  0.16376600  0.39436000  1
  C  C22  1  0.97174500  0.51360900  0.16001300  1
  C  C23  1  0.51360900  0.97174500  0.16001300  1
  C  C24  1  0.65594900  0.65594900  0.40032300  1
  C  C25  1  0.84141900  0.31412900  0.90226700  1
  C  C26  1  0.52722700  0.52722700  0.15957000  1
  C  C27  1  0.31412900  0.84141900  0.90226700  1
