# generated using pymatgen
data_Cu3Ni3C22
_symmetry_space_group_name_H-M   'P 1'
_cell_length_a   5.87788763
_cell_length_b   5.87788763
_cell_length_c   9.60763094
_cell_angle_alpha   88.89301550
_cell_angle_beta   88.89301550
_cell_angle_gamma   60.12543175
_symmetry_Int_Tables_number   1
_chemical_formula_structural   Cu3Ni3C22
_chemical_formula_sum   'Cu3 Ni3 C22'
_cell_volume   287.75892933
_cell_formula_units_Z   1
loop_
 _symmetry_equiv_pos_site_id
 _symmetry_equiv_pos_as_xyz
  1  'x, y, z'
loop_
 _atom_site_type_symbol
 _atom_site_label
 _atom_site_symmetry_multiplicity
 _atom_site_fract_x
 _atom_site_fract_y
 _atom_site_fract_z
 _atom_site_occupancy
  C  C0  1  0.66253900  0.66253900  0.09661000  1
  C  C1  1  0.00615200  0.00615200  0.00595300  1
  C  C2  1  0.00781500  0.00781500  0.50923100  1
  C  C3  1  0.32918000  0.32918000  0.60322000  1
  C  C4  1  0.66291300  0.66291300  0.50719300  1
  C  C5  1  0.33144400  0.33144400  0.00174700  1
  Ni  Ni6  1  0.82915800  0.82915800  0.78024300  1
  Ni  Ni7  1  0.16952700  0.65757300  0.28160900  1
  Ni  Ni8  1  0.65757300  0.16952700  0.28160900  1
  Cu  Cu9  1  0.34151700  0.83110900  0.78577100  1
  Cu  Cu10  1  0.83110900  0.34151700  0.78577100  1
  Cu  Cu11  1  0.17131600  0.17131600  0.28564800  1
  C  C12  1  0.33421300  0.84038500  0.40370600  1
  C  C13  1  0.52003300  0.52003300  0.66931200  1
  C  C14  1  0.66217200  0.66217200  0.88854000  1
  C  C15  1  0.00620500  0.00620500  0.69567200  1
  C  C16  1  0.00603500  0.00603500  0.19388600  1
  C  C17  1  0.84038500  0.33421300  0.40370600  1
  C  C18  1  0.50814900  0.96236200  0.66054800  1
  C  C19  1  0.96236200  0.50814900  0.66054800  1
  C  C20  1  0.16683000  0.16683000  0.89632900  1
  C  C21  1  0.83550100  0.83550100  0.41583700  1
  C  C22  1  0.03510900  0.47149100  0.15987200  1
  C  C23  1  0.47149100  0.03510900  0.15987200  1
  C  C24  1  0.33013800  0.33013800  0.39315400  1
  C  C25  1  0.16998900  0.67043500  0.90678200  1
  C  C26  1  0.48055900  0.48055900  0.15292800  1
  C  C27  1  0.67043500  0.16998900  0.90678200  1
