# generated using pymatgen
data_CuNiC
_symmetry_space_group_name_H-M   'P 1'
_cell_length_a   3.11084700
_cell_length_b   9.48212800
_cell_length_c   14.17185013
_cell_angle_alpha   89.99234269
_cell_angle_beta   90.00000000
_cell_angle_gamma   90.00000000
_symmetry_Int_Tables_number   1
_chemical_formula_structural   CuNiC
_chemical_formula_sum   'Cu12 Ni12 C12'
_cell_volume   418.03342888
_cell_formula_units_Z   12
loop_
 _symmetry_equiv_pos_site_id
 _symmetry_equiv_pos_as_xyz
  1  'x, y, z'
loop_
 _atom_site_type_symbol
 _atom_site_label
 _atom_site_symmetry_multiplicity
 _atom_site_fract_x
 _atom_site_fract_y
 _atom_site_fract_z
 _atom_site_occupancy
  C  C0  1  0.00000000  0.98986500  0.00757800  1
  C  C1  1  0.00000000  0.49423700  0.01075000  1
  C  C2  1  0.50000000  0.24239500  0.14920500  1
  C  C3  1  0.50000000  0.74479300  0.14963500  1
  C  C4  1  0.00000000  0.98973800  0.34129700  1
  C  C5  1  0.00000000  0.49308800  0.34339000  1
  C  C6  1  0.50000000  0.74394800  0.48742000  1
  C  C7  1  0.50000000  0.27458400  0.50562200  1
  C  C8  1  0.00000000  0.99467600  0.67962300  1
  C  C9  1  0.00000000  0.48631300  0.67418700  1
  C  C10  1  0.50000000  0.24545700  0.82076200  1
  C  C11  1  0.50000000  0.77427600  0.83969900  1
  Ni  Ni12  1  0.50000000  0.40177900  0.06303100  1
  Ni  Ni13  1  0.50000000  0.90417600  0.06742400  1
  Ni  Ni14  1  0.00000000  0.14801200  0.10104500  1
  Ni  Ni15  1  0.00000000  0.65161800  0.09941800  1
  Ni  Ni16  1  0.50000000  0.39751800  0.39486900  1
  Ni  Ni17  1  0.50000000  0.90601900  0.39902000  1
  Ni  Ni18  1  0.00000000  0.65113200  0.43379500  1
  Ni  Ni19  1  0.00000000  0.35270600  0.56732800  1
  Ni  Ni20  1  0.50000000  0.40923000  0.73614300  1
  Ni  Ni21  1  0.50000000  0.89930000  0.72896300  1
  Ni  Ni22  1  0.00000000  0.15387400  0.76613100  1
  Ni  Ni23  1  0.00000000  0.85227900  0.90089200  1
  Cu  Cu24  1  0.00000000  0.34630800  0.23046800  1
  Cu  Cu25  1  0.00000000  0.84933800  0.23276300  1
  Cu  Cu26  1  0.50000000  0.09831300  0.27101600  1
  Cu  Cu27  1  0.50000000  0.59833100  0.26651000  1
  Cu  Cu28  1  0.00000000  0.15423000  0.43498100  1
  Cu  Cu29  1  0.00000000  0.84844500  0.56321800  1
  Cu  Cu30  1  0.50000000  0.09512300  0.59617100  1
  Cu  Cu31  1  0.50000000  0.60598200  0.60487700  1
  Cu  Cu32  1  0.00000000  0.65550900  0.76978400  1
  Cu  Cu33  1  0.00000000  0.34796300  0.89838500  1
  Cu  Cu34  1  0.50000000  0.10513400  0.93379400  1
  Cu  Cu35  1  0.50000000  0.59430700  0.93080800  1
