# generated using pymatgen
data_CuNi2C17
_symmetry_space_group_name_H-M   'P 1'
_cell_length_a   8.57386640
_cell_length_b   8.57386640
_cell_length_c   8.26812773
_cell_angle_alpha   64.60345390
_cell_angle_beta   64.60345390
_cell_angle_gamma   62.87515997
_symmetry_Int_Tables_number   1
_chemical_formula_structural   CuNi2C17
_chemical_formula_sum   'Cu2 Ni4 C34'
_cell_volume   467.64123671
_cell_formula_units_Z   2
loop_
 _symmetry_equiv_pos_site_id
 _symmetry_equiv_pos_as_xyz
  1  'x, y, z'
loop_
 _atom_site_type_symbol
 _atom_site_label
 _atom_site_symmetry_multiplicity
 _atom_site_fract_x
 _atom_site_fract_y
 _atom_site_fract_z
 _atom_site_occupancy
  C  C0  1  0.36214200  0.63785800  0.50000000  1
  C  C1  1  0.65497900  0.34502100  0.00000000  1
  C  C2  1  0.25145500  0.15144200  0.60167900  1
  C  C3  1  0.84855800  0.74854500  0.39832100  1
  Ni  Ni4  1  0.14461100  0.64676500  0.89545300  1
  Ni  Ni5  1  0.65430200  0.15310400  0.40588500  1
  Ni  Ni6  1  0.35323500  0.85538900  0.10454700  1
  Ni  Ni7  1  0.84689600  0.34569800  0.59411500  1
  Cu  Cu8  1  0.50196800  0.00552600  0.24279100  1
  Cu  Cu9  1  0.99447400  0.49803200  0.75720900  1
  C  C10  1  0.74649700  0.56193900  0.18087300  1
  C  C11  1  0.43806100  0.25350300  0.81912700  1
  C  C12  1  0.06312400  0.93687600  0.50000000  1
  C  C13  1  0.95762600  0.04237400  0.00000000  1
  C  C14  1  0.54727900  0.74951200  0.69350000  1
  C  C15  1  0.25048800  0.45272100  0.30650000  1
  C  C16  1  0.59529200  0.31442100  0.78395500  1
  C  C17  1  0.03702200  0.09203600  0.56322800  1
  C  C18  1  0.81272800  0.53762600  0.33886000  1
  C  C19  1  0.58102400  0.75013000  0.18083200  1
  C  C20  1  0.68557900  0.40470800  0.21604500  1
  C  C21  1  0.89187100  0.58292300  0.98648100  1
  C  C22  1  0.41707700  0.10812900  0.01351900  1
  C  C23  1  0.24987000  0.41897600  0.81916800  1
  C  C24  1  0.11317100  0.00066000  0.07311900  1
  C  C25  1  0.08909400  0.74187300  0.65084700  1
  C  C26  1  0.76354300  0.06287300  0.14851500  1
  C  C27  1  0.48935000  0.82033300  0.85883600  1
  C  C28  1  0.46237400  0.18727200  0.66114000  1
  C  C29  1  0.25812700  0.91090600  0.34915300  1
  C  C30  1  0.93712700  0.23645700  0.85148500  1
  C  C31  1  0.90796400  0.96297800  0.43677200  1
  C  C32  1  0.74378600  0.60089700  0.68417900  1
  C  C33  1  0.57198600  0.90199100  0.49819300  1
  C  C34  1  0.09800900  0.42801400  0.50180700  1
  C  C35  1  0.31931900  0.59512000  0.29196400  1
  C  C36  1  0.39910300  0.25621400  0.31582100  1
  C  C37  1  0.17966700  0.51065000  0.14116400  1
  C  C38  1  0.99934000  0.88682900  0.92688100  1
  C  C39  1  0.40488000  0.68068100  0.70803600  1
