# generated using pymatgen
data_Cu7(NiC2)2
_symmetry_space_group_name_H-M   'P 1'
_cell_length_a   13.02738800
_cell_length_b   6.01476700
_cell_length_c   12.55537173
_cell_angle_alpha   85.29349542
_cell_angle_beta   90.00000000
_cell_angle_gamma   90.00000000
_symmetry_Int_Tables_number   1
_chemical_formula_structural   Cu7(NiC2)2
_chemical_formula_sum   'Cu28 Ni8 C16'
_cell_volume   980.48025097
_cell_formula_units_Z   4
loop_
 _symmetry_equiv_pos_site_id
 _symmetry_equiv_pos_as_xyz
  1  'x, y, z'
loop_
 _atom_site_type_symbol
 _atom_site_label
 _atom_site_symmetry_multiplicity
 _atom_site_fract_x
 _atom_site_fract_y
 _atom_site_fract_z
 _atom_site_occupancy
  C  C0  1  0.60976400  0.74512200  0.88332800  1
  C  C1  1  0.10976400  0.25487800  0.11667200  1
  C  C2  1  0.18915800  0.73591900  0.87370000  1
  C  C3  1  0.68915800  0.26408100  0.12630000  1
  C  C4  1  0.42397900  0.75165400  0.61596800  1
  C  C5  1  0.92397900  0.24834600  0.38403200  1
  C  C6  1  0.84559000  0.77019700  0.62542100  1
  C  C7  1  0.34559000  0.22980300  0.37457900  1
  C  C8  1  0.39690000  0.76661200  0.13265500  1
  C  C9  1  0.89690000  0.23338800  0.86734500  1
  C  C10  1  0.90009600  0.77249800  0.06249600  1
  C  C11  1  0.40009600  0.22750200  0.93750400  1
  C  C12  1  0.63697700  0.72988500  0.36456000  1
  C  C13  1  0.13697700  0.27011500  0.63544000  1
  C  C14  1  0.13570900  0.72851800  0.43896700  1
  C  C15  1  0.63570900  0.27148200  0.56103300  1
  Ni  Ni16  1  0.89762500  0.94161200  0.18952700  1
  Ni  Ni17  1  0.39762500  0.05838800  0.81047300  1
  Ni  Ni18  1  0.39488100  0.88504500  0.98669800  1
  Ni  Ni19  1  0.89488100  0.11495500  0.01330200  1
  Ni  Ni20  1  0.13179100  0.56631800  0.31099500  1
  Ni  Ni21  1  0.63179100  0.43368200  0.68900500  1
  Ni  Ni22  1  0.63287300  0.61281700  0.51170400  1
  Ni  Ni23  1  0.13287300  0.38718300  0.48829600  1
  Cu  Cu24  1  0.90812300  0.50842300  0.17473500  1
  Cu  Cu25  1  0.40812300  0.49157700  0.82526500  1
  Cu  Cu26  1  0.05652600  0.79208800  0.07247200  1
  Cu  Cu27  1  0.55652600  0.20791200  0.92752800  1
  Cu  Cu28  1  0.50648500  0.55708200  0.08021600  1
  Cu  Cu29  1  0.00648500  0.44291800  0.91978400  1
  Cu  Cu30  1  0.74221300  0.75908000  0.08342800  1
  Cu  Cu31  1  0.24221300  0.24092000  0.91657200  1
  Cu  Cu32  1  0.28228700  0.56572200  0.08258400  1
  Cu  Cu33  1  0.78228700  0.43427800  0.91741600  1
  Cu  Cu34  1  0.30381300  0.02988900  0.15848700  1
  Cu  Cu35  1  0.80381300  0.97011100  0.84151300  1
  Cu  Cu36  1  0.51293500  0.98263800  0.15807800  1
  Cu  Cu37  1  0.01293500  0.01736200  0.84192200  1
  Cu  Cu38  1  0.97920100  0.72450000  0.43142600  1
  Cu  Cu39  1  0.47920100  0.27550000  0.56857400  1
  Cu  Cu40  1  0.63040700  0.00917600  0.67447500  1
  Cu  Cu41  1  0.13040700  0.99082400  0.32552500  1
  Cu  Cu42  1  0.22726400  0.54233000  0.65809000  1
  Cu  Cu43  1  0.72726400  0.45767000  0.34191000  1
  Cu  Cu44  1  0.01695400  0.47604200  0.66091400  1
  Cu  Cu45  1  0.51695400  0.52395800  0.33908600  1
  Cu  Cu46  1  0.29374600  0.72135800  0.41724400  1
  Cu  Cu47  1  0.79374600  0.27864200  0.58275600  1
  Cu  Cu48  1  0.53060700  0.94834400  0.41258200  1
  Cu  Cu49  1  0.03060700  0.05165600  0.58741800  1
  Cu  Cu50  1  0.75179500  0.92583200  0.41920600  1
  Cu  Cu51  1  0.25179500  0.07416800  0.58079400  1
