# generated using pymatgen
data_CuNiC12
_symmetry_space_group_name_H-M   'P 1'
_cell_length_a   6.37191200
_cell_length_b   4.83134600
_cell_length_c   10.85358108
_cell_angle_alpha   89.11933205
_cell_angle_beta   90.00000000
_cell_angle_gamma   90.00000000
_symmetry_Int_Tables_number   1
_chemical_formula_structural   CuNiC12
_chemical_formula_sum   'Cu2 Ni2 C24'
_cell_volume   334.08706487
_cell_formula_units_Z   2
loop_
 _symmetry_equiv_pos_site_id
 _symmetry_equiv_pos_as_xyz
  1  'x, y, z'
loop_
 _atom_site_type_symbol
 _atom_site_label
 _atom_site_symmetry_multiplicity
 _atom_site_fract_x
 _atom_site_fract_y
 _atom_site_fract_z
 _atom_site_occupancy
  C  C0  1  0.00000000  0.00000000  0.00000000  1
  C  C1  1  0.50000000  0.00000000  0.00000000  1
  C  C2  1  0.00000000  0.50000000  0.50000000  1
  C  C3  1  0.50000000  0.50000000  0.50000000  1
  Ni  Ni4  1  0.25000000  0.53094100  0.78554100  1
  Ni  Ni5  1  0.75000000  0.46905900  0.21445900  1
  Cu  Cu6  1  0.75000000  0.01596300  0.72507400  1
  Cu  Cu7  1  0.25000000  0.98403700  0.27492600  1
  C  C8  1  0.75000000  0.57220300  0.92689400  1
  C  C9  1  0.25000000  0.13278800  0.60713500  1
  C  C10  1  0.75000000  0.86721200  0.39286500  1
  C  C11  1  0.25000000  0.42779700  0.07310600  1
  C  C12  1  0.25000000  0.29305400  0.94314900  1
  C  C13  1  0.75000000  0.25357700  0.93042400  1
  C  C14  1  0.94750800  0.69436100  0.85648600  1
  C  C15  1  0.55249200  0.69436100  0.85648600  1
  C  C16  1  0.44139100  0.27898000  0.67091700  1
  C  C17  1  0.05860900  0.27898000  0.67091700  1
  C  C18  1  0.25000000  0.81610200  0.62046600  1
  C  C19  1  0.75000000  0.75812900  0.52851600  1
  C  C20  1  0.25000000  0.24187100  0.47148400  1
  C  C21  1  0.75000000  0.18389800  0.37953400  1
  C  C22  1  0.94139100  0.72102000  0.32908300  1
  C  C23  1  0.55860900  0.72102000  0.32908300  1
  C  C24  1  0.44750800  0.30563900  0.14351400  1
  C  C25  1  0.05249200  0.30563900  0.14351400  1
  C  C26  1  0.25000000  0.74642300  0.06957600  1
  C  C27  1  0.75000000  0.70694600  0.05685100  1
