# generated using pymatgen
data_Cu8Ni5C6
_symmetry_space_group_name_H-M   'P 1'
_cell_length_a   9.18152013
_cell_length_b   9.18152013
_cell_length_c   5.52527134
_cell_angle_alpha   89.96833353
_cell_angle_beta   89.96833353
_cell_angle_gamma   145.02414809
_symmetry_Int_Tables_number   1
_chemical_formula_structural   Cu8Ni5C6
_chemical_formula_sum   'Cu8 Ni5 C6'
_cell_volume   267.00035218
_cell_formula_units_Z   1
loop_
 _symmetry_equiv_pos_site_id
 _symmetry_equiv_pos_as_xyz
  1  'x, y, z'
loop_
 _atom_site_type_symbol
 _atom_site_label
 _atom_site_symmetry_multiplicity
 _atom_site_fract_x
 _atom_site_fract_y
 _atom_site_fract_z
 _atom_site_occupancy
  C  C0  1  0.77083300  0.76318500  0.71156800  1
  C  C1  1  0.41710800  0.08496500  0.70194100  1
  C  C2  1  0.05838500  0.40159400  0.71282000  1
  C  C3  1  0.91503500  0.58289200  0.29805900  1
  C  C4  1  0.59840600  0.94161500  0.28718000  1
  C  C5  1  0.23681500  0.22916700  0.28843200  1
  Ni  Ni6  1  0.25578300  0.74421700  0.50000000  1
  Ni  Ni7  1  0.74581100  0.25418900  0.50000000  1
  Ni  Ni8  1  0.08690300  0.91309700  0.50000000  1
  Ni  Ni9  1  0.57648600  0.42351400  0.50000000  1
  Ni  Ni10  1  0.91657700  0.08342300  0.50000000  1
  Cu  Cu11  1  0.20111900  0.79888100  0.00000000  1
  Cu  Cu12  1  0.91209500  0.08790500  0.00000000  1
  Cu  Cu13  1  0.76638500  0.23361500  0.00000000  1
  Cu  Cu14  1  0.34311600  0.65688400  0.00000000  1
  Cu  Cu15  1  0.05869100  0.94130900  0.00000000  1
  Cu  Cu16  1  0.62349100  0.37650900  0.00000000  1
  Cu  Cu17  1  0.48178200  0.51821800  0.00000000  1
  Cu  Cu18  1  0.41608900  0.58391100  0.50000000  1
