# generated using pymatgen
data_Cu2Ni3C31
_symmetry_space_group_name_H-M   'P 1'
_cell_length_a   8.70212029
_cell_length_b   8.70212029
_cell_length_c   8.70212047
_cell_angle_alpha   60.27583243
_cell_angle_beta   60.27583243
_cell_angle_gamma   60.27583266
_symmetry_Int_Tables_number   1
_chemical_formula_structural   Cu2Ni3C31
_chemical_formula_sum   'Cu2 Ni3 C31'
_cell_volume   468.88146211
_cell_formula_units_Z   1
loop_
 _symmetry_equiv_pos_site_id
 _symmetry_equiv_pos_as_xyz
  1  'x, y, z'
loop_
 _atom_site_type_symbol
 _atom_site_label
 _atom_site_symmetry_multiplicity
 _atom_site_fract_x
 _atom_site_fract_y
 _atom_site_fract_z
 _atom_site_occupancy
  Ni  Ni0  1  0.85515800  0.85515800  0.85515800  1
  Ni  Ni1  1  0.64508300  0.64508300  0.64508300  1
  Ni  Ni2  1  0.35663600  0.35663600  0.35663600  1
  Cu  Cu3  1  0.99510000  0.99510000  0.99510000  1
  Cu  Cu4  1  0.50003200  0.50003200  0.50003200  1
  C  C5  1  0.14473400  0.14473400  0.14473400  1
  C  C6  1  0.95515500  0.25258900  0.54570200  1
  C  C7  1  0.04265000  0.74914100  0.45854600  1
  C  C8  1  0.74914100  0.45854600  0.04265000  1
  C  C9  1  0.45854600  0.04265000  0.74914100  1
  C  C10  1  0.54570200  0.95515500  0.25258900  1
  C  C11  1  0.25258900  0.54570200  0.95515500  1
  C  C12  1  0.49769300  0.88381200  0.69007200  1
  C  C13  1  0.88381200  0.69007200  0.49769300  1
  C  C14  1  0.73605200  0.93976100  0.08829600  1
  C  C15  1  0.69007200  0.49769300  0.88381200  1
  C  C16  1  0.39055200  0.98456500  0.19329100  1
  C  C17  1  0.56357000  0.76309100  0.41406600  1
  C  C18  1  0.08829600  0.73605200  0.93976100  1
  C  C19  1  0.41406600  0.56357000  0.76309100  1
  C  C20  1  0.00270600  0.81278100  0.61437500  1
  C  C21  1  0.76309100  0.41406600  0.56357000  1
  C  C22  1  0.05677900  0.91166900  0.26318000  1
  C  C23  1  0.81278100  0.61437500  0.00270600  1
  C  C24  1  0.19329100  0.39055200  0.98456500  1
  C  C25  1  0.93976100  0.08829600  0.73605200  1
  C  C26  1  0.23508200  0.58875900  0.44084300  1
  C  C27  1  0.98456500  0.19329100  0.39055200  1
  C  C28  1  0.58875900  0.44084300  0.23508200  1
  C  C29  1  0.91166900  0.26318000  0.05677900  1
  C  C30  1  0.44084300  0.23508200  0.58875900  1
  C  C31  1  0.61437500  0.00270600  0.81278100  1
  C  C32  1  0.31013200  0.50216900  0.11617700  1
  C  C33  1  0.26318000  0.05677900  0.91166900  1
  C  C34  1  0.11617700  0.31013200  0.50216900  1
  C  C35  1  0.50216900  0.11617700  0.31013200  1
