# generated using pymatgen
data_CuNiC5
_symmetry_space_group_name_H-M   'P 1'
_cell_length_a   9.26424100
_cell_length_b   12.66715600
_cell_length_c   18.26317520
_cell_angle_alpha   49.39066351
_cell_angle_beta   90.00000000
_cell_angle_gamma   90.00000000
_symmetry_Int_Tables_number   1
_chemical_formula_structural   CuNiC5
_chemical_formula_sum   'Cu8 Ni8 C40'
_cell_volume   1627.05251389
_cell_formula_units_Z   8
loop_
 _symmetry_equiv_pos_site_id
 _symmetry_equiv_pos_as_xyz
  1  'x, y, z'
loop_
 _atom_site_type_symbol
 _atom_site_label
 _atom_site_symmetry_multiplicity
 _atom_site_fract_x
 _atom_site_fract_y
 _atom_site_fract_z
 _atom_site_occupancy
  Ni  Ni0  1  0.75536800  0.92558100  0.23120000  1
  Ni  Ni1  1  0.75385700  0.23548000  0.28277700  1
  Ni  Ni2  1  0.25536800  0.07441900  0.26880000  1
  Ni  Ni3  1  0.25385700  0.76452000  0.21722300  1
  Ni  Ni4  1  0.74614300  0.23548000  0.78277700  1
  Ni  Ni5  1  0.74463200  0.92558100  0.73120000  1
  Ni  Ni6  1  0.24614300  0.76452000  0.71722300  1
  Ni  Ni7  1  0.24463200  0.07441900  0.76880000  1
  Cu  Cu8  1  0.25283500  0.21779700  0.97542900  1
  Cu  Cu9  1  0.25490800  0.54029500  0.09671600  1
  Cu  Cu10  1  0.75490800  0.45970500  0.40328400  1
  Cu  Cu11  1  0.75283500  0.78220300  0.52457100  1
  Cu  Cu12  1  0.24716500  0.21779700  0.47542900  1
  Cu  Cu13  1  0.24509200  0.54029500  0.59671600  1
  Cu  Cu14  1  0.74509200  0.45970500  0.90328400  1
  Cu  Cu15  1  0.74716500  0.78220300  0.02457100  1
  C  C16  1  0.27275700  0.36268600  0.04066700  1
  C  C17  1  0.74421000  0.25129700  0.10767200  1
  C  C18  1  0.76346100  0.96869200  0.05127400  1
  C  C19  1  0.42960100  0.01475100  0.15026000  1
  C  C20  1  0.04584100  0.71807800  0.07753400  1
  C  C21  1  0.44236200  0.72932600  0.08409900  1
  C  C22  1  0.07862200  0.01925500  0.15400700  1
  C  C23  1  0.45286400  0.32223400  0.21330600  1
  C  C24  1  0.05074800  0.32537800  0.20064900  1
  C  C25  1  0.74381300  0.52011400  0.21408600  1
  C  C26  1  0.57862200  0.98074500  0.34599300  1
  C  C27  1  0.24381300  0.47988600  0.28591400  1
  C  C28  1  0.55074800  0.67462200  0.29935100  1
  C  C29  1  0.95286400  0.67776600  0.28669400  1
  C  C30  1  0.92960100  0.98524900  0.34974000  1
  C  C31  1  0.24421000  0.74870300  0.39232800  1
  C  C32  1  0.94236200  0.27067400  0.41590100  1
  C  C33  1  0.54584100  0.28192200  0.42246600  1
  C  C34  1  0.77275700  0.63731400  0.45933300  1
  C  C35  1  0.26346100  0.03130800  0.44872600  1
  C  C36  1  0.73653900  0.96869200  0.55127400  1
  C  C37  1  0.22724300  0.36268600  0.54066700  1
  C  C38  1  0.45415900  0.71807800  0.57753400  1
  C  C39  1  0.05763800  0.72932600  0.58409900  1
  C  C40  1  0.75579000  0.25129700  0.60767200  1
  C  C41  1  0.07039900  0.01475100  0.65026000  1
  C  C42  1  0.04713600  0.32223400  0.71330600  1
  C  C43  1  0.44925200  0.32537800  0.70064900  1
  C  C44  1  0.75618700  0.52011400  0.71408600  1
  C  C45  1  0.42137800  0.01925500  0.65400700  1
  C  C46  1  0.25618700  0.47988600  0.78591400  1
  C  C47  1  0.94925200  0.67462200  0.79935100  1
  C  C48  1  0.54713600  0.67776600  0.78669400  1
  C  C49  1  0.92137800  0.98074500  0.84599300  1
  C  C50  1  0.55763800  0.27067400  0.91590100  1
  C  C51  1  0.95415900  0.28192200  0.92246600  1
  C  C52  1  0.57039900  0.98524900  0.84974000  1
  C  C53  1  0.23653900  0.03130800  0.94872600  1
  C  C54  1  0.25579000  0.74870300  0.89232800  1
  C  C55  1  0.72724300  0.63731400  0.95933300  1
