# generated using pymatgen
data_CuNiC5
_symmetry_space_group_name_H-M   'P 1'
_cell_length_a   5.38461100
_cell_length_b   7.96638700
_cell_length_c   6.93609600
_cell_angle_alpha   89.99981563
_cell_angle_beta   89.99875392
_cell_angle_gamma   89.99901427
_symmetry_Int_Tables_number   1
_chemical_formula_structural   CuNiC5
_chemical_formula_sum   'Cu4 Ni4 C20'
_cell_volume   297.53004616
_cell_formula_units_Z   4
loop_
 _symmetry_equiv_pos_site_id
 _symmetry_equiv_pos_as_xyz
  1  'x, y, z'
loop_
 _atom_site_type_symbol
 _atom_site_label
 _atom_site_symmetry_multiplicity
 _atom_site_fract_x
 _atom_site_fract_y
 _atom_site_fract_z
 _atom_site_occupancy
  C  C0  1  0.66653900  0.50001600  0.00001300  1
  C  C1  1  0.83346000  0.99999500  0.50000600  1
  C  C2  1  0.99213000  0.99991300  0.99999700  1
  C  C3  1  0.50785300  0.50007200  0.50002300  1
  Ni  Ni4  1  0.01274900  0.65404000  0.28171500  1
  Ni  Ni5  1  0.01273100  0.34594300  0.71829800  1
  Ni  Ni6  1  0.48726400  0.15405200  0.21829800  1
  Ni  Ni7  1  0.48726400  0.84595700  0.78170700  1
  Cu  Cu8  1  0.18738500  0.21289300  0.48557100  1
  Cu  Cu9  1  0.18737500  0.78708000  0.51443400  1
  Cu  Cu10  1  0.31261800  0.28711600  0.98556900  1
  Cu  Cu11  1  0.31261500  0.71293100  0.01443400  1
  C  C12  1  0.01526900  0.21358900  0.54521800  1
  C  C13  1  0.02291200  0.74619100  0.08554500  1
  C  C14  1  0.02289500  0.25384400  0.91447700  1
  C  C15  1  0.01529300  0.78639300  0.45479800  1
  C  C16  1  0.24527700  0.45533100  0.69871600  1
  C  C17  1  0.24529600  0.54467000  0.30126100  1
  C  C18  1  0.25471200  0.04467500  0.19870800  1
  C  C19  1  0.25472200  0.95533600  0.80125000  1
  C  C20  1  0.47707900  0.24615100  0.41448300  1
  C  C21  1  0.48472100  0.28641100  0.04520900  1
  C  C22  1  0.48471400  0.71360900  0.95478600  1
  C  C23  1  0.47711100  0.75380900  0.58555100  1
  C  C24  1  0.73002500  0.05193800  0.20750300  1
  C  C25  1  0.73002300  0.94804900  0.79246500  1
  C  C26  1  0.76997400  0.44805200  0.70749900  1
  C  C27  1  0.76999400  0.55194500  0.29246700  1
