# generated using pymatgen
data_Cu6Ni4C13
_symmetry_space_group_name_H-M   'P 1'
_cell_length_a   6.83438150
_cell_length_b   6.83438150
_cell_length_c   6.83438150
_cell_angle_alpha   109.47122063
_cell_angle_beta   109.47122063
_cell_angle_gamma   109.47122063
_symmetry_Int_Tables_number   1
_chemical_formula_structural   Cu6Ni4C13
_chemical_formula_sum   'Cu6 Ni4 C13'
_cell_volume   245.73994851
_cell_formula_units_Z   1
loop_
 _symmetry_equiv_pos_site_id
 _symmetry_equiv_pos_as_xyz
  1  'x, y, z'
loop_
 _atom_site_type_symbol
 _atom_site_label
 _atom_site_symmetry_multiplicity
 _atom_site_fract_x
 _atom_site_fract_y
 _atom_site_fract_z
 _atom_site_occupancy
  Ni  Ni0  1  0.68237300  0.00000000  0.00000000  1
  Ni  Ni1  1  0.31762700  0.31762700  0.31762700  1
  Ni  Ni2  1  0.00000000  0.68237300  0.00000000  1
  Ni  Ni3  1  0.00000000  0.00000000  0.68237300  1
  Cu  Cu4  1  0.75000000  0.50000000  0.25000000  1
  Cu  Cu5  1  0.75000000  0.25000000  0.50000000  1
  Cu  Cu6  1  0.50000000  0.25000000  0.75000000  1
  Cu  Cu7  1  0.50000000  0.75000000  0.25000000  1
  Cu  Cu8  1  0.25000000  0.75000000  0.50000000  1
  Cu  Cu9  1  0.25000000  0.50000000  0.75000000  1
  C  C10  1  0.70679200  0.00000000  0.41399600  1
  C  C11  1  0.70679200  0.41399600  0.00000000  1
  C  C12  1  0.70720400  0.29320800  0.29320800  1
  C  C13  1  0.00000000  0.00000000  0.00000000  1
  C  C14  1  0.41399600  0.70679200  0.00000000  1
  C  C15  1  0.41399600  0.00000000  0.70679200  1
  C  C16  1  0.58600400  0.29279600  0.58600400  1
  C  C17  1  0.58600400  0.58600400  0.29279600  1
  C  C18  1  0.29320800  0.29320800  0.70720400  1
  C  C19  1  0.29320800  0.70720400  0.29320800  1
  C  C20  1  0.29279600  0.58600400  0.58600400  1
  C  C21  1  0.00000000  0.70679200  0.41399600  1
  C  C22  1  0.00000000  0.41399600  0.70679200  1
