# generated using pymatgen
data_Cu2NiC26
_symmetry_space_group_name_H-M   'P 1'
_cell_length_a   9.87608405
_cell_length_b   9.87608405
_cell_length_c   9.87608405
_cell_angle_alpha   60.00000000
_cell_angle_beta   60.00000000
_cell_angle_gamma   60.00000000
_symmetry_Int_Tables_number   1
_chemical_formula_structural   Cu2NiC26
_chemical_formula_sum   'Cu4 Ni2 C52'
_cell_volume   681.14462439
_cell_formula_units_Z   2
loop_
 _symmetry_equiv_pos_site_id
 _symmetry_equiv_pos_as_xyz
  1  'x, y, z'
loop_
 _atom_site_type_symbol
 _atom_site_label
 _atom_site_symmetry_multiplicity
 _atom_site_fract_x
 _atom_site_fract_y
 _atom_site_fract_z
 _atom_site_occupancy
  C  C0  1  0.03686500  0.46313500  0.46313500  1
  C  C1  1  0.03686500  0.03686500  0.46313500  1
  C  C2  1  0.03686500  0.46313500  0.03686500  1
  C  C3  1  0.46313500  0.03686500  0.46313500  1
  C  C4  1  0.78686500  0.21313500  0.21313500  1
  C  C5  1  0.78686500  0.78686500  0.21313500  1
  C  C6  1  0.46313500  0.46313500  0.03686500  1
  C  C7  1  0.46313500  0.03686500  0.03686500  1
  C  C8  1  0.21313500  0.78686500  0.21313500  1
  C  C9  1  0.78686500  0.21313500  0.78686500  1
  C  C10  1  0.21313500  0.21313500  0.78686500  1
  C  C11  1  0.21313500  0.78686500  0.78686500  1
  Ni  Ni12  1  0.00000000  0.00000000  0.00000000  1
  Ni  Ni13  1  0.25000000  0.25000000  0.25000000  1
  Cu  Cu14  1  0.12500000  0.62500000  0.62500000  1
  Cu  Cu15  1  0.62500000  0.12500000  0.62500000  1
  Cu  Cu16  1  0.62500000  0.62500000  0.62500000  1
  Cu  Cu17  1  0.62500000  0.62500000  0.12500000  1
  C  C18  1  0.84072000  0.84072000  0.47784000  1
  C  C19  1  0.84072000  0.84072000  0.84072000  1
  C  C20  1  0.84072000  0.47784000  0.84072000  1
  C  C21  1  0.47784000  0.84072000  0.84072000  1
  C  C22  1  0.77216000  0.40928000  0.40928000  1
  C  C23  1  0.40928000  0.77216000  0.40928000  1
  C  C24  1  0.40928000  0.40928000  0.40928000  1
  C  C25  1  0.40928000  0.40928000  0.77216000  1
  C  C26  1  0.06763400  0.06763400  0.79709700  1
  C  C27  1  0.06763400  0.06763400  0.06763400  1
  C  C28  1  0.06763400  0.79709700  0.06763400  1
  C  C29  1  0.79709700  0.06763400  0.06763400  1
  C  C30  1  0.98383400  0.72396000  0.47498200  1
  C  C31  1  0.81722300  0.98383400  0.47498200  1
  C  C32  1  0.98383400  0.81722300  0.72396000  1
  C  C33  1  0.72396000  0.81722300  0.47498200  1
  C  C34  1  0.98383400  0.47498200  0.81722300  1
  C  C35  1  0.81722300  0.47498200  0.72396000  1
  C  C36  1  0.72396000  0.98383400  0.81722300  1
  C  C37  1  0.81722300  0.72396000  0.98383400  1
  C  C38  1  0.47498200  0.98383400  0.72396000  1
  C  C39  1  0.72396000  0.47498200  0.98383400  1
  C  C40  1  0.47498200  0.72396000  0.81722300  1
  C  C41  1  0.77501800  0.43277700  0.26616600  1
  C  C42  1  0.47498200  0.81722300  0.98383400  1
  C  C43  1  0.77501800  0.52604000  0.43277700  1
  C  C44  1  0.52604000  0.77501800  0.26616600  1
  C  C45  1  0.77501800  0.26616600  0.52604000  1
  C  C46  1  0.43277700  0.52604000  0.26616600  1
  C  C47  1  0.52604000  0.26616600  0.43277700  1
  C  C48  1  0.43277700  0.77501800  0.52604000  1
  C  C49  1  0.26616600  0.77501800  0.43277700  1
  C  C50  1  0.52604000  0.43277700  0.77501800  1
  C  C51  1  0.26616600  0.43277700  0.52604000  1
  C  C52  1  0.43277700  0.26616600  0.77501800  1
  C  C53  1  0.26616600  0.52604000  0.77501800  1
  C  C54  1  0.45290300  0.18236600  0.18236600  1
  C  C55  1  0.18236600  0.45290300  0.18236600  1
  C  C56  1  0.18236600  0.18236600  0.18236600  1
  C  C57  1  0.18236600  0.18236600  0.45290300  1
