# generated using pymatgen
data_CuNiC5
_symmetry_space_group_name_H-M   'P 1'
_cell_length_a   9.87375500
_cell_length_b   14.53561200
_cell_length_c   21.38223300
_cell_angle_alpha   47.81626838
_cell_angle_beta   90.00000000
_cell_angle_gamma   90.00000000
_symmetry_Int_Tables_number   1
_chemical_formula_structural   CuNiC5
_chemical_formula_sum   'Cu8 Ni8 C40'
_cell_volume   2273.96709125
_cell_formula_units_Z   8
loop_
 _symmetry_equiv_pos_site_id
 _symmetry_equiv_pos_as_xyz
  1  'x, y, z'
loop_
 _atom_site_type_symbol
 _atom_site_label
 _atom_site_symmetry_multiplicity
 _atom_site_fract_x
 _atom_site_fract_y
 _atom_site_fract_z
 _atom_site_occupancy
  Ni  Ni0  1  0.24795400  0.16071700  0.30033800  1
  Ni  Ni1  1  0.26444700  0.48102400  0.90970700  1
  Ni  Ni2  1  0.76444700  0.51897600  0.59029300  1
  Ni  Ni3  1  0.74795400  0.83928300  0.19966200  1
  Ni  Ni4  1  0.25204600  0.16071700  0.80033800  1
  Ni  Ni5  1  0.23555300  0.48102400  0.40970700  1
  Ni  Ni6  1  0.73555300  0.51897600  0.09029300  1
  Ni  Ni7  1  0.75204600  0.83928300  0.69966200  1
  Cu  Cu8  1  0.75075000  0.10819400  0.32373700  1
  Cu  Cu9  1  0.76214300  0.33501500  0.87317900  1
  Cu  Cu10  1  0.25075000  0.89180600  0.17626300  1
  Cu  Cu11  1  0.26214300  0.66498500  0.62682100  1
  Cu  Cu12  1  0.73785700  0.33501500  0.37317900  1
  Cu  Cu13  1  0.74925000  0.10819400  0.82373700  1
  Cu  Cu14  1  0.23785700  0.66498500  0.12682100  1
  Cu  Cu15  1  0.24925000  0.89180600  0.67626300  1
  C  C16  1  0.26451100  0.31761000  0.10806900  1
  C  C17  1  0.72482000  0.06264200  0.48098600  1
  C  C18  1  0.77475600  0.24593300  0.15465800  1
  C  C19  1  0.97964900  0.97281200  0.36616600  1
  C  C20  1  0.06795300  0.70788900  0.70694700  1
  C  C21  1  0.43674200  0.69723700  0.72279200  1
  C  C22  1  0.51982200  0.98633200  0.34649100  1
  C  C23  1  0.96766200  0.36056500  0.94349700  1
  C  C24  1  0.56918800  0.36754500  0.94578100  1
  C  C25  1  0.75448900  0.57992300  0.71819300  1
  C  C26  1  0.01982200  0.01366800  0.15350900  1
  C  C27  1  0.25448900  0.42007700  0.78180700  1
  C  C28  1  0.06918800  0.63245500  0.55421900  1
  C  C29  1  0.46766200  0.63943500  0.55650300  1
  C  C30  1  0.47964900  0.02718800  0.13383400  1
  C  C31  1  0.27475600  0.75406700  0.34534200  1
  C  C32  1  0.93674200  0.30276300  0.77720800  1
  C  C33  1  0.56795300  0.29211100  0.79305300  1
  C  C34  1  0.76451100  0.68239000  0.39193100  1
  C  C35  1  0.22482000  0.93735800  0.01901400  1
  C  C36  1  0.77518000  0.06264200  0.98098600  1
  C  C37  1  0.23548900  0.31761000  0.60806900  1
  C  C38  1  0.43204700  0.70788900  0.20694700  1
  C  C39  1  0.06325800  0.69723700  0.22279200  1
  C  C40  1  0.72524400  0.24593300  0.65465800  1
  C  C41  1  0.52035100  0.97281200  0.86616600  1
  C  C42  1  0.53233800  0.36056500  0.44349700  1
  C  C43  1  0.93081200  0.36754500  0.44578100  1
  C  C44  1  0.74551100  0.57992300  0.21819300  1
  C  C45  1  0.98017800  0.98633200  0.84649100  1
  C  C46  1  0.24551100  0.42007700  0.28180700  1
  C  C47  1  0.43081200  0.63245500  0.05421900  1
  C  C48  1  0.03233800  0.63943500  0.05650300  1
  C  C49  1  0.48017800  0.01366800  0.65350900  1
  C  C50  1  0.56325800  0.30276300  0.27720800  1
  C  C51  1  0.93204700  0.29211100  0.29305300  1
  C  C52  1  0.02035100  0.02718800  0.63383400  1
  C  C53  1  0.22524400  0.75406700  0.84534200  1
  C  C54  1  0.27518000  0.93735800  0.51901400  1
  C  C55  1  0.73548900  0.68239000  0.89193100  1
