# generated using pymatgen
data_Cu(NiC2)2
_symmetry_space_group_name_H-M   'P 1'
_cell_length_a   3.59196900
_cell_length_b   8.78852200
_cell_length_c   9.70746800
_cell_angle_alpha   90.00039035
_cell_angle_beta   90.00221215
_cell_angle_gamma   90.00091241
_symmetry_Int_Tables_number   1
_chemical_formula_structural   Cu(NiC2)2
_chemical_formula_sum   'Cu4 Ni8 C16'
_cell_volume   306.44630665
_cell_formula_units_Z   4
loop_
 _symmetry_equiv_pos_site_id
 _symmetry_equiv_pos_as_xyz
  1  'x, y, z'
loop_
 _atom_site_type_symbol
 _atom_site_label
 _atom_site_symmetry_multiplicity
 _atom_site_fract_x
 _atom_site_fract_y
 _atom_site_fract_z
 _atom_site_occupancy
  C  C0  1  0.49997800  0.10084500  0.34094300  1
  C  C1  1  0.00001500  0.39915900  0.84095200  1
  C  C2  1  0.99998400  0.60084100  0.15905900  1
  C  C3  1  0.50002100  0.89916000  0.65905400  1
  C  C4  1  0.00001200  0.14327300  0.57777400  1
  C  C5  1  0.49997800  0.35677700  0.07777100  1
  C  C6  1  0.50002000  0.64326300  0.92222300  1
  C  C7  1  0.99999300  0.85677500  0.42222800  1
  C  C8  1  0.99996300  0.16332800  0.17727100  1
  C  C9  1  0.50001000  0.33665700  0.67727500  1
  C  C10  1  0.49999100  0.66335000  0.32272800  1
  C  C11  1  0.00003600  0.83665600  0.82272500  1
  C  C12  1  0.00000100  0.61736800  0.59539500  1
  C  C13  1  0.49997400  0.88260800  0.09544000  1
  C  C14  1  0.50002300  0.11741100  0.90463600  1
  C  C15  1  0.99999900  0.38258400  0.40456400  1
  Ni  Ni16  1  0.49996100  0.10498300  0.11614300  1
  Ni  Ni17  1  0.00000500  0.39500300  0.61611300  1
  Ni  Ni18  1  0.99999500  0.60496400  0.38384600  1
  Ni  Ni19  1  0.50003800  0.89503500  0.88386800  1
  Ni  Ni20  1  0.99998900  0.16720700  0.37989800  1
  Ni  Ni21  1  0.50001400  0.33278300  0.87990900  1
  Ni  Ni22  1  0.49998700  0.66723600  0.12009500  1
  Ni  Ni23  1  0.00001100  0.83274000  0.62009400  1
  Cu  Cu24  1  0.50002100  0.11707100  0.65207900  1
  Cu  Cu25  1  0.99998700  0.38292200  0.15208200  1
  Cu  Cu26  1  0.00001100  0.61706100  0.84792400  1
  Cu  Cu27  1  0.49998300  0.88293900  0.34791000  1
