# generated using pymatgen
data_Cu5(NiC)7
_symmetry_space_group_name_H-M   'P 1'
_cell_length_a   9.28484100
_cell_length_b   6.58826400
_cell_length_c   9.61386788
_cell_angle_alpha   46.78687224
_cell_angle_beta   90.00000000
_cell_angle_gamma   90.00000000
_symmetry_Int_Tables_number   1
_chemical_formula_structural   Cu5(NiC)7
_chemical_formula_sum   'Cu10 Ni14 C14'
_cell_volume   428.60673153
_cell_formula_units_Z   2
loop_
 _symmetry_equiv_pos_site_id
 _symmetry_equiv_pos_as_xyz
  1  'x, y, z'
loop_
 _atom_site_type_symbol
 _atom_site_label
 _atom_site_symmetry_multiplicity
 _atom_site_fract_x
 _atom_site_fract_y
 _atom_site_fract_z
 _atom_site_occupancy
  C  C0  1  0.23541700  0.50673900  0.75142200  1
  C  C1  1  0.76458300  0.50673900  0.25142200  1
  C  C2  1  0.49738900  0.04672500  0.97910300  1
  C  C3  1  0.99981700  0.50339500  0.99333900  1
  C  C4  1  0.82932900  0.03059500  0.97564900  1
  C  C5  1  0.17142600  0.98654900  0.99979900  1
  C  C6  1  0.17067100  0.03059500  0.47564900  1
  C  C7  1  0.82857400  0.98654900  0.49979900  1
  C  C8  1  0.50261100  0.04672500  0.47910300  1
  C  C9  1  0.32686200  0.47014500  0.51525300  1
  C  C10  1  0.67315800  0.46408300  0.53650800  1
  C  C11  1  0.00018300  0.50339500  0.49333900  1
  C  C12  1  0.32684200  0.46408300  0.03650800  1
  C  C13  1  0.67313800  0.47014500  0.01525300  1
  Ni  Ni14  1  0.32844200  0.20424200  0.80149700  1
  Ni  Ni15  1  0.66359800  0.19758300  0.80710800  1
  Ni  Ni16  1  0.16442500  0.68821700  0.00433000  1
  Ni  Ni17  1  0.83384000  0.69459500  0.00367400  1
  Ni  Ni18  1  0.16616000  0.69459500  0.50367400  1
  Ni  Ni19  1  0.83557500  0.68821700  0.50433000  1
  Ni  Ni20  1  0.67155800  0.20424200  0.30149700  1
  Ni  Ni21  1  0.33640200  0.19758300  0.30710800  1
  Ni  Ni22  1  0.83682100  0.29370500  0.49865500  1
  Ni  Ni23  1  0.16060500  0.30206200  0.49430600  1
  Ni  Ni24  1  0.50366200  0.31575600  0.49878300  1
  Ni  Ni25  1  0.16317900  0.29370500  0.99865500  1
  Ni  Ni26  1  0.83939500  0.30206200  0.99430600  1
  Ni  Ni27  1  0.49633800  0.31575600  0.99878300  1
  Cu  Cu28  1  0.49857800  0.70122400  0.50947200  1
  Cu  Cu29  1  0.33211200  0.80642000  0.69378800  1
  Cu  Cu30  1  0.66311200  0.79860200  0.69969600  1
  Cu  Cu31  1  0.00337000  0.80338200  0.68984200  1
  Cu  Cu32  1  0.66788800  0.80642000  0.19378800  1
  Cu  Cu33  1  0.33688800  0.79860200  0.19969600  1
  Cu  Cu34  1  0.00516900  0.19792500  0.79745000  1
  Cu  Cu35  1  0.99483100  0.19792500  0.29745000  1
  Cu  Cu36  1  0.50142200  0.70122400  0.00947200  1
  Cu  Cu37  1  0.99663000  0.80338200  0.18984200  1
