# generated using pymatgen
data_CuNiC6
_symmetry_space_group_name_H-M   'P 1'
_cell_length_a   6.03475400
_cell_length_b   10.24075069
_cell_length_c   10.24858700
_cell_angle_alpha   107.63210282
_cell_angle_beta   91.23878961
_cell_angle_gamma   91.95776118
_symmetry_Int_Tables_number   1
_chemical_formula_structural   CuNiC6
_chemical_formula_sum   'Cu8 Ni8 C48'
_cell_volume   602.91980499
_cell_formula_units_Z   8
loop_
 _symmetry_equiv_pos_site_id
 _symmetry_equiv_pos_as_xyz
  1  'x, y, z'
loop_
 _atom_site_type_symbol
 _atom_site_label
 _atom_site_symmetry_multiplicity
 _atom_site_fract_x
 _atom_site_fract_y
 _atom_site_fract_z
 _atom_site_occupancy
  C  C0  1  0.25555700  0.74888800  0.99696500  1
  C  C1  1  0.50526600  0.75032800  0.74988400  1
  C  C2  1  0.49596100  0.25079800  0.74960500  1
  C  C3  1  0.99141100  0.75103700  0.75150800  1
  C  C4  1  0.74444300  0.25111200  0.00303500  1
  C  C5  1  0.75528800  0.99814600  0.74963100  1
  C  C6  1  0.99803000  0.24892500  0.75044400  1
  C  C7  1  0.24849900  0.49828800  0.75055500  1
  C  C8  1  0.74640500  0.75041000  0.50317200  1
  C  C9  1  0.25359500  0.24959000  0.49682800  1
  C  C10  1  0.50403900  0.74920200  0.25039500  1
  C  C11  1  0.00197000  0.75107500  0.24955600  1
  C  C12  1  0.24471200  0.00185400  0.25036900  1
  C  C13  1  0.49473400  0.24967200  0.25011600  1
  C  C14  1  0.00858900  0.24896300  0.24849200  1
  C  C15  1  0.75150100  0.50171200  0.24944500  1
  Ni  Ni16  1  0.50000000  0.00000000  0.00000000  1
  Ni  Ni17  1  0.50000000  0.50000000  0.00000000  1
  Ni  Ni18  1  0.24019300  0.25007200  0.99884000  1
  Ni  Ni19  1  0.75980700  0.74992800  0.00116000  1
  Ni  Ni20  1  0.00000000  0.00000000  0.00000000  1
  Ni  Ni21  1  0.24982900  0.74935600  0.49950000  1
  Ni  Ni22  1  0.00000000  0.50000000  0.50000000  1
  Ni  Ni23  1  0.75017100  0.25064400  0.50050000  1
  Cu  Cu24  1  0.00000000  0.50000000  0.00000000  1
  Cu  Cu25  1  0.25317600  0.99677900  0.74919300  1
  Cu  Cu26  1  0.50000000  0.00000000  0.50000000  1
  Cu  Cu27  1  0.00000000  0.00000000  0.50000000  1
  Cu  Cu28  1  0.50000000  0.50000000  0.50000000  1
  Cu  Cu29  1  0.74653600  0.50106800  0.75066400  1
  Cu  Cu30  1  0.25346400  0.49893200  0.24933600  1
  Cu  Cu31  1  0.74682400  0.00322100  0.25080700  1
  C  C32  1  0.77270500  0.87158700  0.88627900  1
  C  C33  1  0.49683500  0.11428700  0.87478900  1
  C  C34  1  0.73932800  0.38839000  0.88546700  1
  C  C35  1  0.27053900  0.88091400  0.87716200  1
  C  C36  1  0.47343400  0.87786900  0.62227600  1
  C  C37  1  0.22328900  0.37047100  0.88541900  1
  C  C38  1  0.02434900  0.11345800  0.87248400  1
  C  C39  1  0.52550000  0.61755300  0.88004800  1
  C  C40  1  0.25973400  0.11031400  0.61659500  1
  C  C41  1  0.50084000  0.38389100  0.62861000  1
  C  C42  1  0.00392400  0.88327800  0.62720100  1
  C  C43  1  0.99764500  0.61409200  0.87091900  1
  C  C44  1  0.74026600  0.88968600  0.38340500  1
  C  C45  1  0.97078600  0.38186800  0.62377300  1
  C  C46  1  0.25234700  0.61529300  0.60536600  1
  C  C47  1  0.75952900  0.12063800  0.60905400  1
  C  C48  1  0.24047100  0.87936200  0.39094600  1
  C  C49  1  0.52656600  0.12213100  0.37772400  1
  C  C50  1  0.74765300  0.38470700  0.39463400  1
  C  C51  1  0.99607600  0.11672200  0.37279900  1
  C  C52  1  0.26167000  0.38066800  0.37347200  1
  C  C53  1  0.73833000  0.61933200  0.62652800  1
  C  C54  1  0.49916000  0.61610900  0.37139000  1
  C  C55  1  0.50316500  0.88571300  0.12521100  1
  C  C56  1  0.97565100  0.88654200  0.12751600  1
  C  C57  1  0.22729500  0.12841300  0.11372100  1
  C  C58  1  0.47450000  0.38244700  0.11995200  1
  C  C59  1  0.02921400  0.61813200  0.37622700  1
  C  C60  1  0.26067200  0.61161000  0.11453300  1
  C  C61  1  0.72946100  0.11908600  0.12283800  1
  C  C62  1  0.00235500  0.38590800  0.12908100  1
  C  C63  1  0.77671100  0.62952900  0.11458100  1
