# generated using pymatgen
data_Cu7NiC5
_symmetry_space_group_name_H-M   'P 1'
_cell_length_a   6.62828200
_cell_length_b   10.09370391
_cell_length_c   9.75666680
_cell_angle_alpha   117.84804998
_cell_angle_beta   90.00038478
_cell_angle_gamma   89.99997946
_symmetry_Int_Tables_number   1
_chemical_formula_structural   Cu7NiC5
_chemical_formula_sum   'Cu28 Ni4 C20'
_cell_volume   577.16286946
_cell_formula_units_Z   4
loop_
 _symmetry_equiv_pos_site_id
 _symmetry_equiv_pos_as_xyz
  1  'x, y, z'
loop_
 _atom_site_type_symbol
 _atom_site_label
 _atom_site_symmetry_multiplicity
 _atom_site_fract_x
 _atom_site_fract_y
 _atom_site_fract_z
 _atom_site_occupancy
  C  C0  1  0.52292200  0.01979600  0.02061500  1
  C  C1  1  0.52288600  0.51979200  0.52066000  1
  C  C2  1  0.02293600  0.98019700  0.97938000  1
  C  C3  1  0.02287500  0.48020900  0.47934200  1
  C  C4  1  0.19819500  0.30557300  0.12667100  1
  C  C5  1  0.19823600  0.80557700  0.62669200  1
  C  C6  1  0.69823300  0.69444000  0.87332800  1
  C  C7  1  0.69822600  0.19441800  0.37330700  1
  C  C8  1  0.38599700  0.48136500  0.96003300  1
  C  C9  1  0.38613600  0.98136100  0.46003000  1
  C  C10  1  0.88599000  0.51863600  0.03996700  1
  C  C11  1  0.88616800  0.01864600  0.53998100  1
  C  C12  1  0.75007400  0.66182100  0.37815300  1
  C  C13  1  0.25007200  0.33818700  0.62185400  1
  C  C14  1  0.75038700  0.16155300  0.87801200  1
  C  C15  1  0.25037800  0.83844400  0.12200100  1
  C  C16  1  0.25098500  0.64033800  0.31175200  1
  C  C17  1  0.25103300  0.14032700  0.81169300  1
  C  C18  1  0.75099200  0.35966000  0.68825000  1
  C  C19  1  0.75103100  0.85967000  0.18830400  1
  Ni  Ni20  1  0.74018100  0.33096700  0.20240400  1
  Ni  Ni21  1  0.74020200  0.83097700  0.70244700  1
  Ni  Ni22  1  0.24019400  0.66903500  0.79759700  1
  Ni  Ni23  1  0.24018800  0.16902200  0.29754700  1
  Cu  Cu24  1  0.70762000  0.19241500  0.16753900  1
  Cu  Cu25  1  0.70763500  0.69242000  0.66753200  1
  Cu  Cu26  1  0.20764000  0.80758800  0.83246100  1
  Cu  Cu27  1  0.20761300  0.30757500  0.33245800  1
  Cu  Cu28  1  0.76514200  0.42964200  0.34679600  1
  Cu  Cu29  1  0.76517700  0.92962200  0.84687000  1
  Cu  Cu30  1  0.26515000  0.57035900  0.65320500  1
  Cu  Cu31  1  0.26516000  0.07037200  0.15312700  1
  Cu  Cu32  1  0.07197000  0.15581000  0.92319900  1
  Cu  Cu33  1  0.07191900  0.65582700  0.42324100  1
  Cu  Cu34  1  0.57196600  0.84419300  0.07680300  1
  Cu  Cu35  1  0.57192500  0.34417200  0.57675700  1
  Cu  Cu36  1  0.44127300  0.61548800  0.38856000  1
  Cu  Cu37  1  0.44133600  0.11545000  0.88843900  1
  Cu  Cu38  1  0.94127900  0.38451100  0.61144200  1
  Cu  Cu39  1  0.94133500  0.88453100  0.11154300  1
  Cu  Cu40  1  0.75053100  0.37176600  0.09412500  1
  Cu  Cu41  1  0.75055500  0.87184100  0.59422500  1
  Cu  Cu42  1  0.25054000  0.62823600  0.90587800  1
  Cu  Cu43  1  0.25055900  0.12816300  0.40577500  1
  Cu  Cu44  1  0.21203100  0.51008600  0.14634300  1
  Cu  Cu45  1  0.21200300  0.01008900  0.64628200  1
  Cu  Cu46  1  0.71203700  0.48991800  0.85365600  1
  Cu  Cu47  1  0.71202400  0.98991300  0.35371700  1
  Cu  Cu48  1  0.27736600  0.29043000  0.80498300  1
  Cu  Cu49  1  0.27737000  0.79042700  0.30502600  1
  Cu  Cu50  1  0.77735500  0.70956700  0.19501700  1
  Cu  Cu51  1  0.77737500  0.20957500  0.69498100  1
