# generated using pymatgen
data_Cu2(Ni2C23)3
_symmetry_space_group_name_H-M   'P 1'
_cell_length_a   5.71196532
_cell_length_b   5.69999151
_cell_length_c   45.62623663
_cell_angle_alpha   120.10022915
_cell_angle_beta   120.30622817
_cell_angle_gamma   89.68092715
_symmetry_Int_Tables_number   1
_chemical_formula_structural   Cu2(Ni2C23)3
_chemical_formula_sum   'Cu2 Ni6 C69'
_cell_volume   1046.86376062
_cell_formula_units_Z   1
loop_
 _symmetry_equiv_pos_site_id
 _symmetry_equiv_pos_as_xyz
  1  'x, y, z'
loop_
 _atom_site_type_symbol
 _atom_site_label
 _atom_site_symmetry_multiplicity
 _atom_site_fract_x
 _atom_site_fract_y
 _atom_site_fract_z
 _atom_site_occupancy
  C  C0  1  0.26020332  0.76124268  0.94013230  1
  C  C1  1  0.25694224  0.75757232  0.81428477  1
  C  C2  1  0.76197758  0.26245409  0.94049960  1
  C  C3  1  0.25621681  0.75827197  0.68908403  1
  C  C4  1  0.75518109  0.25589354  0.81406401  1
  C  C5  1  0.24075882  0.73984089  0.55983715  1
  C  C6  1  0.75812128  0.26008611  0.68982568  1
  C  C7  1  0.26638876  0.76752441  0.44185635  1
  C  C8  1  0.74774588  0.24659772  0.56201484  1
  C  C9  1  0.25773378  0.75792949  0.31436522  1
  C  C10  1  0.75997678  0.26029104  0.44010607  1
  C  C11  1  0.26359375  0.76620606  0.19164473  1
  C  C12  1  0.74419768  0.24318971  0.31085942  1
  C  C13  1  0.25279775  0.75213446  0.06296889  1
  C  C14  1  0.76138106  0.26184347  0.19080524  1
  C  C15  1  0.74059648  0.23946334  0.05989468  1
  Ni  Ni16  1  0.99596327  0.99653978  0.62395975  1
  Ni  Ni17  1  0.00752793  0.00585160  0.50143606  1
  Ni  Ni18  1  -0.00053114  -0.00076353  0.37480845  1
  Ni  Ni19  1  0.00628573  0.00701716  0.00156884  1
  Ni  Ni20  1  0.00766838  0.00853396  0.25225596  1
  Ni  Ni21  1  0.99701887  0.99688781  0.12428070  1
  Cu  Cu22  1  0.00393055  0.00392594  0.87598289  1
  Cu  Cu23  1  0.00653899  0.00831242  0.75193619  1
  C  C24  1  0.50632981  0.50681015  0.00154150  1
  C  C25  1  0.50030772  0.50048042  0.87510311  1
  C  C26  1  0.50053605  0.50179340  0.75030753  1
  C  C27  1  0.51304814  0.51422353  0.62848351  1
  C  C28  1  0.50855354  0.50790562  0.50195101  1
  C  C29  1  0.51106510  0.51053989  0.37767805  1
  C  C30  1  0.50791878  0.50811456  0.25213812  1
  C  C31  1  0.50808315  0.50800677  0.12703289  1
  C  C32  1  0.26132988  0.25976865  0.94018174  1
  C  C33  1  0.21758497  0.69796004  0.87380893  1
  C  C34  1  0.29344566  0.21858961  0.87399933  1
  C  C35  1  0.25363367  0.25351147  0.81330782  1
  C  C36  1  0.73671113  0.73478911  0.93394024  1
  C  C37  1  0.69913240  0.77391677  0.87412830  1
  C  C38  1  0.21887257  0.69767100  0.74897948  1
  C  C39  1  0.77373324  0.29297512  0.87397962  1
  C  C40  1  0.29429317  0.21955597  0.74879422  1
  C  C41  1  0.25388781  0.25892640  0.68898073  1
  C  C42  1  0.74131123  0.74143005  0.81037241  1
  C  C43  1  0.69653177  0.77147508  0.74885193  1
  C  C44  1  0.20236785  0.69858509  0.62087675  1
  C  C45  1  0.77149042  0.29429881  0.74878850  1
  C  C46  1  0.27300339  0.21078128  0.61765402  1
  C  C47  1  0.74971897  0.75103724  0.68747046  1
  C  C48  1  0.67036401  0.72903975  0.61785484  1
  C  C49  1  0.22181387  0.72955092  0.50203734  1
  C  C50  1  0.76725883  0.27112879  0.62169217  1
  C  C51  1  0.29467421  0.22393244  0.50369665  1
  C  C52  1  0.26464644  0.26208619  0.44065051  1
  C  C53  1  0.73951584  0.73772701  0.55991004  1
  C  C54  1  0.73449685  0.80595910  0.50386362  1
  C  C55  1  0.20203947  0.65857126  0.36449675  1
  C  C56  1  0.79657732  0.28808303  0.50240927  1
  C  C57  1  0.28677261  0.21601942  0.37418803  1
  C  C58  1  0.74749194  0.74287105  0.43631861  1
  C  C59  1  0.70852465  0.77874410  0.37448180  1
  C  C60  1  0.22230627  0.72881758  0.25222733  1
  C  C61  1  0.71269891  0.25621761  0.36412418  1
  C  C62  1  0.29369419  0.22585838  0.25318515  1
  C  C63  1  0.26656937  0.26333525  0.19146713  1
  C  C64  1  0.74354559  0.74386963  0.31087307  1
  C  C65  1  0.72896019  0.79744976  0.25280874  1
  C  C66  1  0.20286035  0.65940154  0.11486128  1
  C  C67  1  0.79794460  0.29049840  0.25290943  1
  C  C68  1  0.27898379  0.21162808  0.12332704  1
  C  C69  1  0.74358758  0.74251609  0.18583749  1
  C  C70  1  0.71020684  0.77784605  0.12394685  1
  C  C71  1  0.22338572  0.72897538  0.00218029  1
  C  C72  1  0.71828386  0.26219984  0.11505769  1
  C  C73  1  0.28962629  0.22428179  0.00227132  1
  C  C74  1  0.73922938  0.73996821  0.05968118  1
  C  C75  1  0.72722141  0.79386007  0.00194466  1
  C  C76  1  0.79641360  0.29037081  0.00257553  1
