# generated using pymatgen
data_Cu2Ni4C29
_symmetry_space_group_name_H-M   'P 1'
_cell_length_a   8.23529769
_cell_length_b   8.93248759
_cell_length_c   5.95585817
_cell_angle_alpha   102.09793720
_cell_angle_beta   94.31491790
_cell_angle_gamma   113.33603445
_symmetry_Int_Tables_number   1
_chemical_formula_structural   Cu2Ni4C29
_chemical_formula_sum   'Cu2 Ni4 C29'
_cell_volume   387.18967393
_cell_formula_units_Z   1
loop_
 _symmetry_equiv_pos_site_id
 _symmetry_equiv_pos_as_xyz
  1  'x, y, z'
loop_
 _atom_site_type_symbol
 _atom_site_label
 _atom_site_symmetry_multiplicity
 _atom_site_fract_x
 _atom_site_fract_y
 _atom_site_fract_z
 _atom_site_occupancy
  C  C0  1  0.00000000  0.00000000  0.00000000  1
  C  C1  1  0.60234200  0.94454200  0.81868600  1
  C  C2  1  0.39765800  0.05545800  0.18131400  1
  C  C3  1  0.67961600  0.64373200  0.97363900  1
  C  C4  1  0.32038400  0.35626800  0.02636100  1
  C  C5  1  0.81937900  0.70848700  0.56427900  1
  C  C6  1  0.18062100  0.29151300  0.43572100  1
  C  C7  1  0.77984900  0.31780700  0.68152700  1
  C  C8  1  0.22015100  0.68219300  0.31847300  1
  Ni  Ni9  1  0.24761400  0.59299500  0.79929600  1
  Ni  Ni10  1  0.75238600  0.40700500  0.20070400  1
  Ni  Ni11  1  0.27149000  0.03041200  0.66316100  1
  Ni  Ni12  1  0.72851000  0.96958800  0.33683900  1
  Cu  Cu13  1  0.95541800  0.61593500  0.86332300  1
  Cu  Cu14  1  0.04458200  0.38406500  0.13667700  1
  C  C15  1  0.82862100  0.56152000  0.77229400  1
  C  C16  1  0.17137900  0.43848000  0.22770600  1
  C  C17  1  0.76152200  0.83373000  0.83532700  1
  C  C18  1  0.23847800  0.16627000  0.16467300  1
  C  C19  1  0.43239200  0.05457400  0.84636100  1
  C  C20  1  0.56760800  0.94542600  0.15363900  1
  C  C21  1  0.32880900  0.70511200  0.63377000  1
  C  C22  1  0.67119100  0.29488800  0.36623000  1
  C  C23  1  0.09006900  0.92435500  0.72867600  1
  C  C24  1  0.90993100  0.07564500  0.27132400  1
  C  C25  1  0.28749700  0.20985000  0.66616900  1
  C  C26  1  0.71250300  0.79015000  0.33383100  1
  C  C27  1  0.09511300  0.41799400  0.66722200  1
  C  C28  1  0.90488700  0.58200600  0.33277800  1
  C  C29  1  0.71956400  0.06337400  0.58443200  1
  C  C30  1  0.28043600  0.93662600  0.41556800  1
  C  C31  1  0.40223700  0.56013300  0.91352100  1
  C  C32  1  0.59776300  0.43986700  0.08647900  1
  C  C33  1  0.17104000  0.68166700  0.98831000  1
  C  C34  1  0.82896000  0.31833300  0.01169000  1
