# generated using pymatgen
data_Cu2Ni2C7
_symmetry_space_group_name_H-M   'P 1'
_cell_length_a   7.35538643
_cell_length_b   7.35538643
_cell_length_c   14.94653890
_cell_angle_alpha   76.65228349
_cell_angle_beta   76.65228349
_cell_angle_gamma   62.58662069
_symmetry_Int_Tables_number   1
_chemical_formula_structural   Cu2Ni2C7
_chemical_formula_sum   'Cu8 Ni8 C28'
_cell_volume   691.13723283
_cell_formula_units_Z   4
loop_
 _symmetry_equiv_pos_site_id
 _symmetry_equiv_pos_as_xyz
  1  'x, y, z'
loop_
 _atom_site_type_symbol
 _atom_site_label
 _atom_site_symmetry_multiplicity
 _atom_site_fract_x
 _atom_site_fract_y
 _atom_site_fract_z
 _atom_site_occupancy
  Ni  Ni0  1  0.92807700  0.23891600  0.43644900  1
  Ni  Ni1  1  0.39062200  0.74173600  0.43949300  1
  Ni  Ni2  1  0.74173600  0.39062200  0.93949300  1
  Ni  Ni3  1  0.76108400  0.07192300  0.06355100  1
  Ni  Ni4  1  0.23891600  0.92807700  0.93644900  1
  Ni  Ni5  1  0.25826400  0.60937800  0.06050700  1
  Ni  Ni6  1  0.60937800  0.25826400  0.56050700  1
  Ni  Ni7  1  0.07192300  0.76108400  0.56355100  1
  Cu  Cu8  1  0.84752400  0.84023900  0.31198800  1
  Cu  Cu9  1  0.84023900  0.84752400  0.81198800  1
  Cu  Cu10  1  0.66387300  0.64261100  0.19041800  1
  Cu  Cu11  1  0.64261100  0.66387300  0.69041800  1
  Cu  Cu12  1  0.35738900  0.33612700  0.30958200  1
  Cu  Cu13  1  0.33612700  0.35738900  0.80958200  1
  Cu  Cu14  1  0.15976100  0.15247600  0.18801200  1
  Cu  Cu15  1  0.15247600  0.15976100  0.68801200  1
  C  C16  1  0.81228600  0.89092800  0.42623800  1
  C  C17  1  0.83876600  0.79393000  0.16929800  1
  C  C18  1  0.89092800  0.81228600  0.92623800  1
  C  C19  1  0.88358600  0.38568700  0.22534700  1
  C  C20  1  0.64908600  0.71778900  0.32959000  1
  C  C21  1  0.79393000  0.83876600  0.66929800  1
  C  C22  1  0.68105200  0.61146300  0.07453400  1
  C  C23  1  0.92510200  0.42351100  0.67815400  1
  C  C24  1  0.71778900  0.64908700  0.82959000  1
  C  C25  1  0.42351100  0.92510200  0.17815400  1
  C  C26  1  0.97109700  0.02890300  0.75000000  1
  C  C27  1  0.61431300  0.11641400  0.27465300  1
  C  C28  1  0.45610800  0.54389200  0.25000000  1
  C  C29  1  0.38853700  0.31894800  0.42546600  1
  C  C30  1  0.61146300  0.68105200  0.57453400  1
  C  C31  1  0.54389200  0.45610800  0.75000000  1
  C  C32  1  0.38568700  0.88358600  0.72534700  1
  C  C33  1  0.02890300  0.97109700  0.25000000  1
  C  C34  1  0.57648900  0.07489800  0.82184600  1
  C  C35  1  0.28221100  0.35091400  0.17041000  1
  C  C36  1  0.07489800  0.57648900  0.32184600  1
  C  C37  1  0.31894800  0.38853700  0.92546600  1
  C  C38  1  0.20607000  0.16123400  0.33070200  1
  C  C39  1  0.35091400  0.28221100  0.67041000  1
  C  C40  1  0.11641400  0.61431300  0.77465300  1
  C  C41  1  0.10907200  0.18771400  0.07376200  1
  C  C42  1  0.16123400  0.20607000  0.83070200  1
  C  C43  1  0.18771400  0.10907200  0.57376200  1
