# generated using pymatgen
data_Cu2NiC22
_symmetry_space_group_name_H-M   'P 1'
_cell_length_a   9.08308200
_cell_length_b   9.43421850
_cell_length_c   13.79637072
_cell_angle_alpha   92.05967153
_cell_angle_beta   90.71512510
_cell_angle_gamma   90.17597089
_symmetry_Int_Tables_number   1
_chemical_formula_structural   Cu2NiC22
_chemical_formula_sum   'Cu4 Ni2 C44'
_cell_volume   1181.37241612
_cell_formula_units_Z   2
loop_
 _symmetry_equiv_pos_site_id
 _symmetry_equiv_pos_as_xyz
  1  'x, y, z'
loop_
 _atom_site_type_symbol
 _atom_site_label
 _atom_site_symmetry_multiplicity
 _atom_site_fract_x
 _atom_site_fract_y
 _atom_site_fract_z
 _atom_site_occupancy
  C  C0  1  0.98903400  0.51629300  0.95232400  1
  C  C1  1  0.96464100  0.51746400  0.42754900  1
  C  C2  1  0.50951800  0.96471800  0.54474800  1
  C  C3  1  0.49703500  0.99352200  0.05163300  1
  C  C4  1  0.25944600  0.28912000  0.15852700  1
  C  C5  1  0.74260500  0.74826100  0.28344800  1
  C  C6  1  0.21520500  0.81646900  0.75464600  1
  C  C7  1  0.23325600  0.75842300  0.25294300  1
  C  C8  1  0.75215600  0.21703700  0.35133800  1
  C  C9  1  0.46176800  0.51262500  0.75132400  1
  C  C10  1  0.23098800  0.22492300  0.36557400  1
  C  C11  1  0.73605000  0.25909900  0.85727400  1
  C  C12  1  0.24785300  0.75953000  0.00645200  1
  C  C13  1  0.74034600  0.26177900  0.13204600  1
  C  C14  1  0.76488900  0.72464000  0.68829200  1
  C  C15  1  0.22179200  0.26183700  0.91995900  1
  C  C16  1  0.74570300  0.75955100  0.00893500  1
  C  C17  1  0.24220300  0.72064700  0.48430900  1
  C  C18  1  0.78522500  0.21552700  0.62493500  1
  C  C19  1  0.24026300  0.21290800  0.64874000  1
  Ni  Ni20  1  0.99592300  0.48964300  0.18335400  1
  Ni  Ni21  1  0.51051100  0.99089200  0.81605700  1
  Cu  Cu22  1  0.99246500  0.96607600  0.50177400  1
  Cu  Cu23  1  0.49234600  0.51531500  0.99274700  1
  Cu  Cu24  1  0.00879300  0.48161300  0.68381500  1
  Cu  Cu25  1  0.48781600  0.01035700  0.31094300  1
  C  C26  1  0.98808400  0.18177200  0.44362100  1
  C  C27  1  0.00569900  0.79012800  0.38702700  1
  C  C28  1  0.29017000  0.53393300  0.89852300  1
  C  C29  1  0.68937500  0.53431400  0.89706200  1
  C  C30  1  0.49642600  0.69835600  0.10046500  1
  C  C31  1  0.48566300  0.30552400  0.05966700  1
  C  C32  1  0.20143900  0.94539300  0.59002800  1
  C  C33  1  0.79633000  0.94604300  0.59284400  1
  C  C34  1  0.00601200  0.28149500  0.05839900  1
  C  C35  1  0.00085200  0.72619000  0.09848300  1
  C  C36  1  0.21709700  0.48501700  0.59912400  1
  C  C37  1  0.81078900  0.49160600  0.58709900  1
  C  C38  1  0.48625300  0.79666600  0.37526000  1
  C  C39  1  0.49589700  0.18212800  0.42623100  1
  C  C40  1  0.26794000  0.98894700  0.91053800  1
  C  C41  1  0.73152300  0.00336400  0.93000000  1
  C  C42  1  0.99132700  0.66456700  0.79115300  1
  C  C43  1  0.00374300  0.27588600  0.76036800  1
  C  C44  1  0.76210100  0.46575700  0.28033300  1
  C  C45  1  0.21682400  0.47892300  0.29917700  1
  C  C46  1  0.51943400  0.21617500  0.71545000  1
  C  C47  1  0.48868800  0.78151300  0.69219800  1
  C  C48  1  0.69027300  0.01385300  0.21949400  1
  C  C49  1  0.28762800  0.03128500  0.21696300  1
