# generated using pymatgen
data_CuNiC
_symmetry_space_group_name_H-M   'P 1'
_cell_length_a   4.64677600
_cell_length_b   4.64677600
_cell_length_c   6.27492500
_cell_angle_alpha   90.00002146
_cell_angle_beta   90.00000000
_cell_angle_gamma   89.99967941
_symmetry_Int_Tables_number   1
_chemical_formula_structural   CuNiC
_chemical_formula_sum   'Cu4 Ni4 C4'
_cell_volume   135.49148870
_cell_formula_units_Z   4
loop_
 _symmetry_equiv_pos_site_id
 _symmetry_equiv_pos_as_xyz
  1  'x, y, z'
loop_
 _atom_site_type_symbol
 _atom_site_label
 _atom_site_symmetry_multiplicity
 _atom_site_fract_x
 _atom_site_fract_y
 _atom_site_fract_z
 _atom_site_occupancy
  C  C0  1  0.97179800  0.97179900  0.00000000  1
  C  C1  1  0.02820500  0.02820700  0.50000000  1
  C  C2  1  0.52820900  0.47179000  0.24999900  1
  C  C3  1  0.47179200  0.52820600  0.75000000  1
  Ni  Ni4  1  0.17599000  0.82400900  0.75000000  1
  Ni  Ni5  1  0.32400900  0.32400900  0.50000000  1
  Ni  Ni6  1  0.67599000  0.67599000  0.00000000  1
  Ni  Ni7  1  0.82400900  0.17599000  0.25000000  1
  Cu  Cu8  1  0.22479900  0.77520000  0.25000000  1
  Cu  Cu9  1  0.27520000  0.27520000  0.00000000  1
  Cu  Cu10  1  0.72479900  0.72479900  0.50000000  1
  Cu  Cu11  1  0.77520000  0.22480000  0.75000000  1
