# generated using pymatgen
data_CuNi3C13
_symmetry_space_group_name_H-M   'P 1'
_cell_length_a   8.44962800
_cell_length_b   8.60089378
_cell_length_c   8.61212591
_cell_angle_alpha   89.65185957
_cell_angle_beta   89.96140641
_cell_angle_gamma   89.95391499
_symmetry_Int_Tables_number   1
_chemical_formula_structural   CuNi3C13
_chemical_formula_sum   'Cu4 Ni12 C52'
_cell_volume   625.86878135
_cell_formula_units_Z   4
loop_
 _symmetry_equiv_pos_site_id
 _symmetry_equiv_pos_as_xyz
  1  'x, y, z'
loop_
 _atom_site_type_symbol
 _atom_site_label
 _atom_site_symmetry_multiplicity
 _atom_site_fract_x
 _atom_site_fract_y
 _atom_site_fract_z
 _atom_site_occupancy
  C  C0  1  0.10071900  0.88570600  0.12316600  1
  C  C1  1  0.92955700  0.45607300  0.44096600  1
  C  C2  1  0.88327400  0.65324600  0.63342400  1
  C  C3  1  0.87500600  0.86650300  0.88426600  1
  C  C4  1  0.86911300  0.11558700  0.09648400  1
  C  C5  1  0.81425500  0.30389100  0.28948200  1
  C  C6  1  0.65233300  0.62855400  0.85998500  1
  C  C7  1  0.65796000  0.83878500  0.67248300  1
  C  C8  1  0.61627000  0.14886800  0.35398600  1
  C  C9  1  0.63087300  0.35382600  0.09316400  1
  C  C10  1  0.52280200  0.97707500  0.50792600  1
  C  C11  1  0.45446100  0.55688700  0.04676000  1
  C  C12  1  0.40583400  0.39256300  0.86350400  1
  C  C13  1  0.37396400  0.14719400  0.60231700  1
  C  C14  1  0.34275800  0.88495500  0.35453400  1
  C  C15  1  0.22598800  0.24230500  0.77276400  1
  C  C16  1  0.30500700  0.69470800  0.18899800  1
  C  C17  1  0.11910400  0.65651800  0.39564600  1
  C  C18  1  0.12998300  0.39857600  0.60140300  1
  C  C19  1  0.09160200  0.07815700  0.91303200  1
  Ni  Ni20  1  0.87689000  0.37942500  0.86708300  1
  Ni  Ni21  1  0.87353800  0.88401800  0.37148600  1
  Ni  Ni22  1  0.87546400  0.13052200  0.62053300  1
  Ni  Ni23  1  0.62561600  0.38046000  0.62052600  1
  Ni  Ni24  1  0.37471100  0.12814600  0.12043200  1
  Ni  Ni25  1  0.37526200  0.87664000  0.87495300  1
  Ni  Ni26  1  0.37514200  0.63075700  0.62296200  1
  Ni  Ni27  1  0.12500200  0.62840700  0.87093700  1
  Ni  Ni28  1  0.12450900  0.13056800  0.37061300  1
  Ni  Ni29  1  0.62550200  0.87996400  0.12293100  1
  Ni  Ni30  1  0.62544100  0.63311900  0.37413700  1
  Ni  Ni31  1  0.12504800  0.37758400  0.11810000  1
  Cu  Cu32  1  0.87503300  0.62763700  0.12329100  1
  Cu  Cu33  1  0.62326400  0.12477600  0.86485300  1
  Cu  Cu34  1  0.37488400  0.38462000  0.36677200  1
  Cu  Cu35  1  0.12704300  0.88583200  0.62596200  1
  C  C36  1  0.88289000  0.37125900  0.10088200  1
  C  C37  1  0.87578000  0.89352300  0.61124100  1
  C  C38  1  0.88351100  0.12074500  0.38249700  1
  C  C39  1  0.88679800  0.61840500  0.86662600  1
  C  C40  1  0.86679100  0.36916300  0.63069400  1
  C  C41  1  0.86378900  0.88421200  0.13292000  1
  C  C42  1  0.86735200  0.64988500  0.37969800  1
  C  C43  1  0.87524300  0.13951900  0.85719400  1
  C  C44  1  0.63346700  0.87005900  0.35981500  1
  C  C45  1  0.63600100  0.38494600  0.85932500  1
  C  C46  1  0.62978900  0.14232700  0.61390000  1
  C  C47  1  0.62945000  0.64211400  0.13833000  1
  C  C48  1  0.61656100  0.12058100  0.12095700  1
  C  C49  1  0.61706600  0.61868900  0.61278500  1
  C  C50  1  0.61720200  0.87206500  0.88824200  1
  C  C51  1  0.62652800  0.39239800  0.38160900  1
  C  C52  1  0.36907200  0.11454300  0.88221600  1
  C  C53  1  0.38165600  0.88942800  0.11406100  1
  C  C54  1  0.38089700  0.63840600  0.38718900  1
  C  C55  1  0.38006300  0.38650100  0.62941700  1
  C  C56  1  0.37002800  0.12080000  0.36436600  1
  C  C57  1  0.36858700  0.63705000  0.86103600  1
  C  C58  1  0.37008000  0.36468000  0.11315300  1
  C  C59  1  0.38055400  0.86979900  0.63752600  1
  C  C60  1  0.12428200  0.36997000  0.35842100  1
  C  C61  1  0.13350200  0.86313800  0.87858600  1
  C  C62  1  0.13327100  0.13844600  0.13252200  1
  C  C63  1  0.13423800  0.62992600  0.63133200  1
  C  C64  1  0.12042000  0.61410200  0.10880600  1
  C  C65  1  0.11353000  0.89225100  0.36726400  1
  C  C66  1  0.12044800  0.13827800  0.60774900  1
  C  C67  1  0.11694700  0.39094400  0.88139100  1
