# generated using pymatgen
data_Cu5Ni7C6
_symmetry_space_group_name_H-M   'P 1'
_cell_length_a   9.13498600
_cell_length_b   4.74611800
_cell_length_c   4.76459776
_cell_angle_alpha   84.44426150
_cell_angle_beta   90.00000000
_cell_angle_gamma   90.00000000
_symmetry_Int_Tables_number   1
_chemical_formula_structural   Cu5Ni7C6
_chemical_formula_sum   'Cu5 Ni7 C6'
_cell_volume   205.60219611
_cell_formula_units_Z   1
loop_
 _symmetry_equiv_pos_site_id
 _symmetry_equiv_pos_as_xyz
  1  'x, y, z'
loop_
 _atom_site_type_symbol
 _atom_site_label
 _atom_site_symmetry_multiplicity
 _atom_site_fract_x
 _atom_site_fract_y
 _atom_site_fract_z
 _atom_site_occupancy
  C  C0  1  0.17521300  0.98140000  0.98963500  1
  C  C1  1  0.82478700  0.98140000  0.98963500  1
  C  C2  1  0.50000000  0.01434400  0.96847600  1
  C  C3  1  0.32514100  0.50937700  0.52311400  1
  C  C4  1  0.00000000  0.48817800  0.49503000  1
  C  C5  1  0.67485900  0.50937700  0.52311400  1
  Ni  Ni6  1  0.65664200  0.82515100  0.81755200  1
  Ni  Ni7  1  0.34335800  0.82515100  0.81755200  1
  Ni  Ni8  1  0.16607900  0.30006100  0.69944200  1
  Ni  Ni9  1  0.83392100  0.30006100  0.69944200  1
  Ni  Ni10  1  0.50000000  0.32101800  0.69662000  1
  Ni  Ni11  1  0.16808800  0.68981900  0.30929600  1
  Ni  Ni12  1  0.83191200  0.68981900  0.30929600  1
  Cu  Cu13  1  0.00000000  0.79366800  0.80149400  1
  Cu  Cu14  1  0.50000000  0.70992500  0.30511500  1
  Cu  Cu15  1  0.00000000  0.16305800  0.17142300  1
  Cu  Cu16  1  0.65028500  0.19909800  0.19188100  1
  Cu  Cu17  1  0.34971500  0.19909800  0.19188100  1
