# generated using pymatgen
data_CuNi3C20
_symmetry_space_group_name_H-M   'P 1'
_cell_length_a   5.24650900
_cell_length_b   5.24967053
_cell_length_c   20.95165782
_cell_angle_alpha   90.85566648
_cell_angle_beta   90.77882669
_cell_angle_gamma   119.79757818
_symmetry_Int_Tables_number   1
_chemical_formula_structural   CuNi3C20
_chemical_formula_sum   'Cu2 Ni6 C40'
_cell_volume   500.56202894
_cell_formula_units_Z   2
loop_
 _symmetry_equiv_pos_site_id
 _symmetry_equiv_pos_as_xyz
  1  'x, y, z'
loop_
 _atom_site_type_symbol
 _atom_site_label
 _atom_site_symmetry_multiplicity
 _atom_site_fract_x
 _atom_site_fract_y
 _atom_site_fract_z
 _atom_site_occupancy
  C  C0  1  0.67816500  0.65204200  0.33403400  1
  C  C1  1  0.65248300  0.67863200  0.08425800  1
  C  C2  1  0.67905600  0.65140000  0.83413700  1
  C  C3  1  0.65082100  0.67907900  0.58392000  1
  C  C4  1  0.34682900  0.33786300  0.20825000  1
  C  C5  1  0.33802700  0.34844200  0.45848600  1
  C  C6  1  0.34814100  0.33807400  0.70885500  1
  C  C7  1  0.33785800  0.34637800  0.95861100  1
  Ni  Ni8  1  0.67546400  0.00657700  0.44087900  1
  Ni  Ni9  1  0.66882400  0.00362600  0.94278300  1
  Ni  Ni10  1  0.32269300  0.00296900  0.56607800  1
  Ni  Ni11  1  0.00324100  0.32282300  0.81687600  1
  Ni  Ni12  1  0.00716800  0.67314400  0.19205200  1
  Ni  Ni13  1  0.00308900  0.67069700  0.69163900  1
  Cu  Cu14  1  0.31626900  0.00329300  0.06652000  1
  Cu  Cu15  1  0.00409800  0.31772300  0.31604500  1
  C  C16  1  0.99733000  0.33878000  0.06322000  1
  C  C17  1  0.99741900  0.34181600  0.56278700  1
  C  C18  1  0.66607400  0.00503100  0.18761800  1
  C  C19  1  0.66507200  0.00447100  0.68790200  1
  C  C20  1  0.33847200  0.99715300  0.31301600  1
  C  C21  1  0.34187200  0.99739400  0.81304700  1
  C  C22  1  0.00600300  0.66575800  0.43694900  1
  C  C23  1  0.00323100  0.66519100  0.93858900  1
  C  C24  1  0.92881400  0.24803400  0.20898100  1
  C  C25  1  0.92920000  0.24707900  0.70898400  1
  C  C26  1  0.74123200  0.07122600  0.04966600  1
  C  C27  1  0.97991500  0.58506900  0.08195700  1
  C  C28  1  0.74696900  0.07068500  0.54775200  1
  C  C29  1  0.96707000  0.57913100  0.58336600  1
  C  C30  1  0.42240100  0.03710800  0.17220300  1
  C  C31  1  0.73191400  0.64216400  0.43002000  1
  C  C32  1  0.42173300  0.03734400  0.67260200  1
  C  C33  1  0.72979700  0.64184100  0.93113600  1
  C  C34  1  0.64324400  0.73158700  0.18058900  1
  C  C35  1  0.64116200  0.73121200  0.68063900  1
  C  C36  1  0.35932000  0.27019300  0.30605200  1
  C  C37  1  0.37102700  0.27224700  0.80572700  1
  C  C38  1  0.27104400  0.35945400  0.05643100  1
  C  C39  1  0.58553600  0.97984500  0.33180000  1
  C  C40  1  0.27270500  0.37102300  0.55528700  1
  C  C41  1  0.57933400  0.96715700  0.83376600  1
  C  C42  1  0.03834300  0.42274200  0.42157200  1
  C  C43  1  0.03617300  0.42175800  0.92342800  1
  C  C44  1  0.24902200  0.92924400  0.45823400  1
  C  C45  1  0.24554900  0.92881300  0.95959500  1
  C  C46  1  0.07130000  0.74138100  0.29932700  1
  C  C47  1  0.07069300  0.74650600  0.79813700  1
