# generated using pymatgen
data_Cu16Ni4C7
_symmetry_space_group_name_H-M   'P 1'
_cell_length_a   10.15977270
_cell_length_b   9.97882871
_cell_length_c   10.15977289
_cell_angle_alpha   59.07159399
_cell_angle_beta   89.44847140
_cell_angle_gamma   59.07159952
_symmetry_Int_Tables_number   1
_chemical_formula_structural   Cu16Ni4C7
_chemical_formula_sum   'Cu32 Ni8 C14'
_cell_volume   711.14197275
_cell_formula_units_Z   2
loop_
 _symmetry_equiv_pos_site_id
 _symmetry_equiv_pos_as_xyz
  1  'x, y, z'
loop_
 _atom_site_type_symbol
 _atom_site_label
 _atom_site_symmetry_multiplicity
 _atom_site_fract_x
 _atom_site_fract_y
 _atom_site_fract_z
 _atom_site_occupancy
  C  C0  1  0.08885500  0.82229000  0.83885500  1
  C  C1  1  0.08455800  0.25000000  0.83455800  1
  C  C2  1  0.33455800  0.75000000  0.58455800  1
  C  C3  1  0.33885500  0.32229000  0.58885500  1
  C  C4  1  0.66114500  0.67771000  0.41114500  1
  C  C5  1  0.66544200  0.25000000  0.41544200  1
  C  C6  1  0.91544200  0.75000000  0.16544100  1
  C  C7  1  0.91114500  0.17771000  0.16114500  1
  C  C8  1  0.00000000  0.50000000  0.00000000  1
  C  C9  1  0.50000000  0.00000000  0.50000000  1
  C  C10  1  0.50000000  0.50000000  0.00000000  1
  C  C11  1  0.50000000  0.00000000  0.00000000  1
  C  C12  1  0.12500000  0.75000000  0.37500000  1
  C  C13  1  0.87500000  0.25000000  0.62500000  1
  Ni  Ni14  1  0.35994700  0.92850800  0.77672200  1
  Ni  Ni15  1  0.27672200  0.42850800  0.85994700  1
  Ni  Ni16  1  0.71154600  0.92850800  0.79477000  1
  Ni  Ni17  1  0.70523000  0.57149200  0.78845400  1
  Ni  Ni18  1  0.29477000  0.42850800  0.21154600  1
  Ni  Ni19  1  0.28845400  0.07149200  0.20523000  1
  Ni  Ni20  1  0.72327800  0.57149200  0.14005400  1
  Ni  Ni21  1  0.64005300  0.07149200  0.22327800  1
  Cu  Cu22  1  0.35380200  0.78785800  0.88857500  1
  Cu  Cu23  1  0.05693700  0.89738200  0.43772900  1
  Cu  Cu24  1  0.36923600  0.94754400  0.64090500  1
  Cu  Cu25  1  0.14090500  0.44754400  0.86923600  1
  Cu  Cu26  1  0.68321900  0.94754400  0.91155100  1
  Cu  Cu27  1  0.30011500  0.54765500  0.84920000  1
  Cu  Cu28  1  0.04568100  0.89738200  0.16488900  1
  Cu  Cu29  1  0.06227100  0.60261800  0.44306300  1
  Cu  Cu30  1  0.39685600  0.95234500  0.34777100  1
  Cu  Cu31  1  0.58844900  0.55245600  0.81678100  1
  Cu  Cu32  1  0.38857500  0.28785800  0.85380200  1
  Cu  Cu33  1  0.33511100  0.60261800  0.45431900  1
  Cu  Cu34  1  0.85834100  0.78785800  0.82356700  1
  Cu  Cu35  1  0.67643300  0.71214200  0.64165900  1
  Cu  Cu36  1  0.34920000  0.04765600  0.80011500  1
  Cu  Cu37  1  0.15222900  0.54765500  0.10314400  1
  Cu  Cu38  1  0.84777100  0.45234400  0.89685600  1
  Cu  Cu39  1  0.65080000  0.95234500  0.19988500  1
  Cu  Cu40  1  0.32356700  0.28785800  0.35834100  1
  Cu  Cu41  1  0.14165900  0.21214200  0.17643300  1
  Cu  Cu42  1  0.66488900  0.39738200  0.54568100  1
  Cu  Cu43  1  0.61142500  0.71214200  0.14619800  1
  Cu  Cu44  1  0.41155100  0.44754400  0.18322000  1
  Cu  Cu45  1  0.60314400  0.04765600  0.65222900  1
  Cu  Cu46  1  0.93772900  0.39738200  0.55693700  1
  Cu  Cu47  1  0.95431900  0.10261800  0.83511100  1
  Cu  Cu48  1  0.69988500  0.45234400  0.15080000  1
  Cu  Cu49  1  0.31678100  0.05245600  0.08844900  1
  Cu  Cu50  1  0.85909500  0.55245600  0.13076400  1
  Cu  Cu51  1  0.63076400  0.05245600  0.35909500  1
  Cu  Cu52  1  0.94306300  0.10261800  0.56227100  1
  Cu  Cu53  1  0.64619800  0.21214200  0.11142500  1
