# generated using pymatgen
data_Cu9NiC4
_symmetry_space_group_name_H-M   'P 1'
_cell_length_a   5.75445800
_cell_length_b   5.87068900
_cell_length_c   26.80597941
_cell_angle_alpha   79.25521373
_cell_angle_beta   90.00000000
_cell_angle_gamma   90.00000000
_symmetry_Int_Tables_number   1
_chemical_formula_structural   Cu9NiC4
_chemical_formula_sum   'Cu36 Ni4 C16'
_cell_volume   889.69943010
_cell_formula_units_Z   4
loop_
 _symmetry_equiv_pos_site_id
 _symmetry_equiv_pos_as_xyz
  1  'x, y, z'
loop_
 _atom_site_type_symbol
 _atom_site_label
 _atom_site_symmetry_multiplicity
 _atom_site_fract_x
 _atom_site_fract_y
 _atom_site_fract_z
 _atom_site_occupancy
  C  C0  1  0.80124900  0.33752900  0.40303900  1
  C  C1  1  0.69875100  0.33752900  0.90303900  1
  C  C2  1  0.19875100  0.66247100  0.59696100  1
  C  C3  1  0.30124900  0.66247100  0.09696100  1
  C  C4  1  0.28619500  0.84318900  0.42521100  1
  C  C5  1  0.21380500  0.84318900  0.92521100  1
  C  C6  1  0.71380500  0.15681100  0.57478900  1
  C  C7  1  0.78619500  0.15681100  0.07478900  1
  C  C8  1  0.30160500  0.46978000  0.30906600  1
  C  C9  1  0.19839500  0.46978000  0.80906600  1
  C  C10  1  0.69839500  0.53022000  0.69093400  1
  C  C11  1  0.80160500  0.53022000  0.19093400  1
  C  C12  1  0.82973900  0.93498400  0.30542000  1
  C  C13  1  0.67026100  0.93498400  0.80542000  1
  C  C14  1  0.17026100  0.06501600  0.69458000  1
  C  C15  1  0.32973900  0.06501600  0.19458000  1
  Ni  Ni16  1  0.41679700  0.43281600  0.50110600  1
  Ni  Ni17  1  0.08320300  0.43281600  0.00110600  1
  Ni  Ni18  1  0.58320300  0.56718400  0.49889400  1
  Ni  Ni19  1  0.91679700  0.56718400  0.99889400  1
  Cu  Cu20  1  0.63587900  0.09989100  0.37995900  1
  Cu  Cu21  1  0.86412100  0.09989100  0.87995900  1
  Cu  Cu22  1  0.36412100  0.90010900  0.62004100  1
  Cu  Cu23  1  0.13587900  0.90010900  0.12004100  1
  Cu  Cu24  1  0.85524200  0.47285300  0.33371500  1
  Cu  Cu25  1  0.64475800  0.47285300  0.83371500  1
  Cu  Cu26  1  0.14475800  0.52714700  0.66628500  1
  Cu  Cu27  1  0.35524200  0.52714700  0.16628500  1
  Cu  Cu28  1  0.76809300  0.18998600  0.46653400  1
  Cu  Cu29  1  0.73190700  0.18998600  0.96653400  1
  Cu  Cu30  1  0.23190700  0.81001400  0.53346600  1
  Cu  Cu31  1  0.26809300  0.81001400  0.03346600  1
  Cu  Cu32  1  0.96288700  0.58312000  0.41983300  1
  Cu  Cu33  1  0.53711300  0.58312000  0.91983300  1
  Cu  Cu34  1  0.03711300  0.41688000  0.58016700  1
  Cu  Cu35  1  0.46288700  0.41688000  0.08016700  1
  Cu  Cu36  1  0.52923800  0.50570200  0.39649700  1
  Cu  Cu37  1  0.97076200  0.50570200  0.89649700  1
  Cu  Cu38  1  0.47076200  0.49429800  0.60350300  1
  Cu  Cu39  1  0.02923800  0.49429800  0.10350300  1
  Cu  Cu40  1  0.07723500  0.18347600  0.39410600  1
  Cu  Cu41  1  0.42276500  0.18347600  0.89410600  1
  Cu  Cu42  1  0.92276500  0.81652400  0.60589400  1
  Cu  Cu43  1  0.57723500  0.81652400  0.10589400  1
  Cu  Cu44  1  0.06968100  0.75005400  0.24505600  1
  Cu  Cu45  1  0.43031900  0.75005400  0.74505600  1
  Cu  Cu46  1  0.93031900  0.24994600  0.75494400  1
  Cu  Cu47  1  0.56968100  0.24994600  0.25494400  1
  Cu  Cu48  1  0.06195600  0.24410100  0.24973400  1
  Cu  Cu49  1  0.43804400  0.24410100  0.74973400  1
  Cu  Cu50  1  0.93804400  0.75589900  0.75026600  1
  Cu  Cu51  1  0.56195600  0.75589900  0.25026600  1
  Cu  Cu52  1  0.24828000  0.84926600  0.33659800  1
  Cu  Cu53  1  0.25172000  0.84926600  0.83659800  1
  Cu  Cu54  1  0.75172000  0.15073400  0.66340200  1
  Cu  Cu55  1  0.74828000  0.15073400  0.16340200  1
