# generated using pymatgen
data_Cu2NiC6
_symmetry_space_group_name_H-M   'P 1'
_cell_length_a   8.27989800
_cell_length_b   8.50314100
_cell_length_c   24.78888260
_cell_angle_alpha   87.57198391
_cell_angle_beta   90.00000000
_cell_angle_gamma   90.00000000
_symmetry_Int_Tables_number   1
_chemical_formula_structural   Cu2NiC6
_chemical_formula_sum   'Cu8 Ni4 C24'
_cell_volume   1743.69791562
_cell_formula_units_Z   4
loop_
 _symmetry_equiv_pos_site_id
 _symmetry_equiv_pos_as_xyz
  1  'x, y, z'
loop_
 _atom_site_type_symbol
 _atom_site_label
 _atom_site_symmetry_multiplicity
 _atom_site_fract_x
 _atom_site_fract_y
 _atom_site_fract_z
 _atom_site_occupancy
  Ni  Ni0  1  0.96145500  0.83325200  0.59403800  1
  Ni  Ni1  1  0.53854500  0.83325200  0.09403800  1
  Ni  Ni2  1  0.46145500  0.16674800  0.90596200  1
  Ni  Ni3  1  0.03854500  0.16674800  0.40596200  1
  Cu  Cu4  1  0.46184900  0.76768300  0.74296900  1
  Cu  Cu5  1  0.02990400  0.66171700  0.90723400  1
  Cu  Cu6  1  0.03815100  0.76768300  0.24296900  1
  Cu  Cu7  1  0.47009600  0.66171700  0.40723400  1
  Cu  Cu8  1  0.52990400  0.33828300  0.59276600  1
  Cu  Cu9  1  0.96184900  0.23231700  0.75703100  1
  Cu  Cu10  1  0.97009600  0.33828300  0.09276600  1
  Cu  Cu11  1  0.53815100  0.23231700  0.25703100  1
  C  C12  1  0.19504800  0.95475100  0.81987500  1
  C  C13  1  0.71422700  0.89561400  0.83966500  1
  C  C14  1  0.28635100  0.86107600  0.98205800  1
  C  C15  1  0.30495200  0.95475100  0.31987500  1
  C  C16  1  0.78577300  0.89561400  0.33966500  1
  C  C17  1  0.21364900  0.86107600  0.48205800  1
  C  C18  1  0.69449700  0.63227300  0.51713500  1
  C  C19  1  0.27342700  0.59594600  0.64551600  1
  C  C20  1  0.76079700  0.53536100  0.68683400  1
  C  C21  1  0.26079700  0.46463900  0.81316600  1
  C  C22  1  0.80550300  0.63227300  0.01713500  1
  C  C23  1  0.77342700  0.40405400  0.85448400  1
  C  C24  1  0.22657300  0.59594600  0.14551600  1
  C  C25  1  0.19449700  0.36772700  0.98286500  1
  C  C26  1  0.73920300  0.53536100  0.18683400  1
  C  C27  1  0.23920300  0.46463900  0.31316600  1
  C  C28  1  0.72657300  0.40405400  0.35448400  1
  C  C29  1  0.30550300  0.36772700  0.48286500  1
  C  C30  1  0.78635100  0.13892400  0.51794200  1
  C  C31  1  0.21422700  0.10438600  0.66033500  1
  C  C32  1  0.69504800  0.04524900  0.68012500  1
  C  C33  1  0.71364900  0.13892400  0.01794200  1
  C  C34  1  0.28577300  0.10438600  0.16033500  1
  C  C35  1  0.80495200  0.04524900  0.18012500  1
