# generated using pymatgen
data_CuNiC11
_symmetry_space_group_name_H-M   'P 1'
_cell_length_a   5.15503925
_cell_length_b   17.57021303
_cell_length_c   6.88369600
_cell_angle_alpha   90.00059275
_cell_angle_beta   89.99903881
_cell_angle_gamma   87.93798800
_symmetry_Int_Tables_number   1
_chemical_formula_structural   CuNiC11
_chemical_formula_sum   'Cu4 Ni4 C44'
_cell_volume   623.08798425
_cell_formula_units_Z   4
loop_
 _symmetry_equiv_pos_site_id
 _symmetry_equiv_pos_as_xyz
  1  'x, y, z'
loop_
 _atom_site_type_symbol
 _atom_site_label
 _atom_site_symmetry_multiplicity
 _atom_site_fract_x
 _atom_site_fract_y
 _atom_site_fract_z
 _atom_site_occupancy
  C  C0  1  0.76966700  0.04033000  0.24996100  1
  C  C1  1  0.76971400  0.54032400  0.24995900  1
  C  C2  1  0.23043200  0.45990700  0.75001900  1
  C  C3  1  0.23048600  0.95983200  0.74996700  1
  C  C4  1  0.25498300  0.13383000  0.00964600  1
  C  C5  1  0.25490900  0.63384300  0.00962100  1
  C  C6  1  0.25503000  0.13384700  0.49023300  1
  C  C7  1  0.25503800  0.63389100  0.49023700  1
  C  C8  1  0.74468200  0.36617500  0.50945600  1
  C  C9  1  0.74444400  0.86622000  0.50936600  1
  C  C10  1  0.74474500  0.36616500  0.99058200  1
  C  C11  1  0.74445600  0.86616900  0.99050700  1
  C  C12  1  0.78072000  0.66894500  0.75005400  1
  C  C13  1  0.21889200  0.33101400  0.25000400  1
  C  C14  1  0.78104900  0.16894000  0.75003300  1
  C  C15  1  0.21883000  0.83102000  0.25004300  1
  Ni  Ni16  1  0.72577700  0.03484600  0.75000100  1
  Ni  Ni17  1  0.72546400  0.53483500  0.75001100  1
  Ni  Ni18  1  0.27429400  0.46507600  0.24998200  1
  Ni  Ni19  1  0.27422400  0.96506100  0.24999800  1
  Cu  Cu20  1  0.72203900  0.20965400  0.25001800  1
  Cu  Cu21  1  0.72201000  0.70968800  0.25001900  1
  Cu  Cu22  1  0.27815100  0.29037600  0.75000300  1
  Cu  Cu23  1  0.27814600  0.79031500  0.75002300  1
  C  C24  1  0.30352000  0.04041300  0.24997400  1
  C  C25  1  0.30353600  0.54042900  0.24997800  1
  C  C26  1  0.69712500  0.45947600  0.74999000  1
  C  C27  1  0.69686600  0.95949000  0.74995600  1
  C  C28  1  0.96333400  0.07125400  0.75009100  1
  C  C29  1  0.96269300  0.57127400  0.75026700  1
  C  C30  1  0.03662100  0.42871000  0.24999900  1
  C  C31  1  0.03653100  0.92870400  0.25012200  1
  C  C32  1  0.52652400  0.09129200  0.74997200  1
  C  C33  1  0.52601800  0.59124200  0.74979000  1
  C  C34  1  0.47345700  0.40860400  0.24996600  1
  C  C35  1  0.47339000  0.90858200  0.24991300  1
  C  C36  1  0.42408700  0.23323200  0.24996400  1
  C  C37  1  0.42411900  0.73325400  0.25002100  1
  C  C38  1  0.57597800  0.26669300  0.75007300  1
  C  C39  1  0.57608900  0.76674100  0.75009100  1
  C  C40  1  0.12189800  0.21650800  0.74995300  1
  C  C41  1  0.12184700  0.71650200  0.75000400  1
  C  C42  1  0.87780100  0.28362300  0.25006700  1
  C  C43  1  0.87775100  0.78363700  0.25005000  1
  C  C44  1  0.78299400  0.15956000  0.06915100  1
  C  C45  1  0.78287700  0.65956900  0.06915900  1
  C  C46  1  0.78289600  0.15954500  0.43087000  1
  C  C47  1  0.78295200  0.65956200  0.43084600  1
  C  C48  1  0.21770400  0.34048700  0.56909100  1
  C  C49  1  0.21797500  0.84041300  0.56906000  1
  C  C50  1  0.21751100  0.34047400  0.93090700  1
  C  C51  1  0.21772400  0.84042500  0.93093300  1
