# generated using pymatgen
data_Cu16NiC12
_symmetry_space_group_name_H-M   'P 1'
_cell_length_a   6.09364500
_cell_length_b   7.05598700
_cell_length_c   11.28695500
_cell_angle_alpha   90.00000000
_cell_angle_beta   90.00000000
_cell_angle_gamma   90.00000000
_symmetry_Int_Tables_number   1
_chemical_formula_structural   Cu16NiC12
_chemical_formula_sum   'Cu32 Ni2 C24'
_cell_volume   485.30159121
_cell_formula_units_Z   2
loop_
 _symmetry_equiv_pos_site_id
 _symmetry_equiv_pos_as_xyz
  1  'x, y, z'
loop_
 _atom_site_type_symbol
 _atom_site_label
 _atom_site_symmetry_multiplicity
 _atom_site_fract_x
 _atom_site_fract_y
 _atom_site_fract_z
 _atom_site_occupancy
  C  C0  1  0.37528900  0.50000000  0.12829000  1
  C  C1  1  0.62471100  0.00000000  0.62829000  1
  Ni  Ni2  1  0.98862600  0.50000000  0.49972000  1
  Ni  Ni3  1  0.01137400  0.00000000  0.99972000  1
  Cu  Cu4  1  0.71495900  0.50000000  0.30360600  1
  Cu  Cu5  1  0.28504100  0.00000000  0.80360600  1
  Cu  Cu6  1  0.82407000  0.50000000  0.17382100  1
  Cu  Cu7  1  0.17593000  0.00000000  0.67382100  1
  Cu  Cu8  1  0.00447200  0.38344100  0.00086800  1
  Cu  Cu9  1  0.00447200  0.61655900  0.00086800  1
  Cu  Cu10  1  0.99552800  0.11655900  0.50086800  1
  Cu  Cu11  1  0.99552800  0.88344100  0.50086800  1
  Cu  Cu12  1  0.20271600  0.30267300  0.32209800  1
  Cu  Cu13  1  0.20271600  0.69732700  0.32209800  1
  Cu  Cu14  1  0.79728400  0.19732700  0.82209800  1
  Cu  Cu15  1  0.79728400  0.80267300  0.82209800  1
  Cu  Cu16  1  0.16985400  0.18370400  0.20141200  1
  Cu  Cu17  1  0.16985400  0.81629600  0.20141200  1
  Cu  Cu18  1  0.83014600  0.31629600  0.70141200  1
  Cu  Cu19  1  0.83014600  0.68370400  0.70141200  1
  Cu  Cu20  1  0.64060600  0.25409600  0.99996900  1
  Cu  Cu21  1  0.64060600  0.74590400  0.99996900  1
  Cu  Cu22  1  0.35939400  0.24590400  0.49996900  1
  Cu  Cu23  1  0.35939400  0.75409600  0.49996900  1
  Cu  Cu24  1  0.39468100  0.17903700  0.98881100  1
  Cu  Cu25  1  0.39468100  0.82096300  0.98881100  1
  Cu  Cu26  1  0.60531900  0.32096300  0.48881100  1
  Cu  Cu27  1  0.60531900  0.67903700  0.48881100  1
  Cu  Cu28  1  0.21826500  0.50000000  0.71595200  1
  Cu  Cu29  1  0.78173500  0.00000000  0.21595200  1
  Cu  Cu30  1  0.33675600  0.50000000  0.85638500  1
  Cu  Cu31  1  0.66324400  0.00000000  0.35638500  1
  Cu  Cu32  1  0.46056900  0.38081100  0.74843800  1
  Cu  Cu33  1  0.46056900  0.61918900  0.74843800  1
  Cu  Cu34  1  0.53943100  0.11918900  0.24843800  1
  Cu  Cu35  1  0.53943100  0.88081100  0.24843800  1
  C  C36  1  0.36595900  0.50000000  0.76605300  1
  C  C37  1  0.63404100  0.00000000  0.26605300  1
  C  C38  1  0.97628600  0.50000000  0.63793200  1
  C  C39  1  0.02371400  0.00000000  0.13793200  1
  C  C40  1  0.75109200  0.50000000  0.44830000  1
  C  C41  1  0.24890800  0.00000000  0.94830000  1
  C  C42  1  0.11044100  0.31870300  0.45601300  1
  C  C43  1  0.11044100  0.68129700  0.45601300  1
  C  C44  1  0.88955900  0.18129700  0.95601300  1
  C  C45  1  0.88955900  0.81870300  0.95601300  1
  C  C46  1  0.68304900  0.50000000  0.21577600  1
  C  C47  1  0.31695100  0.00000000  0.71577600  1
  C  C48  1  0.06593300  0.50000000  0.04018700  1
  C  C49  1  0.93406700  0.00000000  0.54018700  1
  C  C50  1  0.26243100  0.28417400  0.23944200  1
  C  C51  1  0.26243100  0.71582600  0.23944200  1
  C  C52  1  0.73756900  0.21582600  0.73944200  1
  C  C53  1  0.73756900  0.78417400  0.73944200  1
  C  C54  1  0.48443500  0.29381700  0.01118800  1
  C  C55  1  0.48443500  0.70618300  0.01118800  1
  C  C56  1  0.51556500  0.20618300  0.51118800  1
  C  C57  1  0.51556500  0.79381700  0.51118800  1
