# generated using pymatgen
data_Cu(NiC2)2
_symmetry_space_group_name_H-M   'P 1'
_cell_length_a   3.64820100
_cell_length_b   8.54167800
_cell_length_c   9.73432500
_cell_angle_alpha   90.00138582
_cell_angle_beta   89.99985478
_cell_angle_gamma   90.00003583
_symmetry_Int_Tables_number   1
_chemical_formula_structural   Cu(NiC2)2
_chemical_formula_sum   'Cu4 Ni8 C16'
_cell_volume   303.33868207
_cell_formula_units_Z   4
loop_
 _symmetry_equiv_pos_site_id
 _symmetry_equiv_pos_as_xyz
  1  'x, y, z'
loop_
 _atom_site_type_symbol
 _atom_site_label
 _atom_site_symmetry_multiplicity
 _atom_site_fract_x
 _atom_site_fract_y
 _atom_site_fract_z
 _atom_site_occupancy
  C  C0  1  0.50000000  0.10268100  0.34442500  1
  C  C1  1  0.00000000  0.39730300  0.84448100  1
  C  C2  1  0.99999900  0.60270000  0.15552300  1
  C  C3  1  0.49999900  0.89730400  0.65557100  1
  C  C4  1  0.00000200  0.16189200  0.17331900  1
  C  C5  1  0.50000300  0.33812400  0.67333600  1
  C  C6  1  0.49999900  0.66187900  0.32665900  1
  C  C7  1  0.00000200  0.83809900  0.82668600  1
  C  C8  1  0.00000000  0.14356100  0.57640400  1
  C  C9  1  0.50000000  0.35649500  0.07641500  1
  C  C10  1  0.50000000  0.64351000  0.92358800  1
  C  C11  1  0.99999900  0.85648400  0.42360700  1
  C  C12  1  0.99999700  0.38195900  0.40960200  1
  C  C13  1  0.49999900  0.88195800  0.09038100  1
  C  C14  1  0.49999800  0.11804100  0.90962100  1
  C  C15  1  0.00000200  0.61803000  0.59037000  1
  Ni  Ni16  1  0.50000400  0.10122500  0.11738900  1
  Ni  Ni17  1  0.00000500  0.39877200  0.61738400  1
  Ni  Ni18  1  0.99999900  0.60121400  0.38259800  1
  Ni  Ni19  1  0.50000200  0.89877900  0.88261200  1
  Ni  Ni20  1  0.99999800  0.17205000  0.37572700  1
  Ni  Ni21  1  0.49999900  0.32795400  0.87574100  1
  Ni  Ni22  1  0.49999900  0.67205200  0.12425400  1
  Ni  Ni23  1  0.00000000  0.82793400  0.62428200  1
  Cu  Cu24  1  0.49999900  0.11740200  0.63094500  1
  Cu  Cu25  1  0.99999900  0.38259900  0.13093500  1
  Cu  Cu26  1  0.00000100  0.61740500  0.86908500  1
  Cu  Cu27  1  0.49999900  0.88259100  0.36905900  1
