# generated using pymatgen
data_Cu7(NiC2)2
_symmetry_space_group_name_H-M   'P 1'
_cell_length_a   6.24694400
_cell_length_b   8.91478800
_cell_length_c   10.60852576
_cell_angle_alpha   67.07172826
_cell_angle_beta   90.00000000
_cell_angle_gamma   90.00000000
_symmetry_Int_Tables_number   1
_chemical_formula_structural   Cu7(NiC2)2
_chemical_formula_sum   'Cu28 Ni8 C16'
_cell_volume   544.11429031
_cell_formula_units_Z   4
loop_
 _symmetry_equiv_pos_site_id
 _symmetry_equiv_pos_as_xyz
  1  'x, y, z'
loop_
 _atom_site_type_symbol
 _atom_site_label
 _atom_site_symmetry_multiplicity
 _atom_site_fract_x
 _atom_site_fract_y
 _atom_site_fract_z
 _atom_site_occupancy
  C  C0  1  0.90558000  0.93545100  0.12495500  1
  C  C1  1  0.59442000  0.43545100  0.12495500  1
  C  C2  1  0.20438000  0.70867400  0.02729100  1
  C  C3  1  0.70438000  0.79132600  0.97270900  1
  C  C4  1  0.29562000  0.20867400  0.02729100  1
  C  C5  1  0.79562000  0.29132600  0.97270900  1
  C  C6  1  0.40558000  0.56454900  0.87504500  1
  C  C7  1  0.09442000  0.06454900  0.87504500  1
  C  C8  1  0.39713900  0.83286800  0.48849600  1
  C  C9  1  0.10286100  0.33286800  0.48849600  1
  C  C10  1  0.45200300  0.55138100  0.35406400  1
  C  C11  1  0.04799700  0.05138100  0.35406400  1
  C  C12  1  0.95200300  0.94861900  0.64593600  1
  C  C13  1  0.54799700  0.44861900  0.64593600  1
  C  C14  1  0.89713900  0.66713200  0.51150400  1
  C  C15  1  0.60286100  0.16713200  0.51150400  1
  Ni  Ni16  1  0.29304200  0.86914800  0.17274900  1
  Ni  Ni17  1  0.87128300  0.59140500  0.25484000  1
  Ni  Ni18  1  0.20695800  0.36914800  0.17274900  1
  Ni  Ni19  1  0.62871700  0.09140500  0.25484000  1
  Ni  Ni20  1  0.37128300  0.90859500  0.74516000  1
  Ni  Ni21  1  0.79304200  0.63085200  0.82725100  1
  Ni  Ni22  1  0.12871700  0.40859500  0.74516000  1
  Ni  Ni23  1  0.70695800  0.13085200  0.82725100  1
  Cu  Cu24  1  0.57380600  0.65568500  0.47524800  1
  Cu  Cu25  1  0.77967700  0.98833900  0.26498100  1
  Cu  Cu26  1  0.25051900  0.88879600  0.28358200  1
  Cu  Cu27  1  0.98179900  0.57620000  0.36442900  1
  Cu  Cu28  1  0.92619400  0.15568500  0.47524800  1
  Cu  Cu29  1  0.72032300  0.48833900  0.26498100  1
  Cu  Cu30  1  0.39810900  0.74296500  0.17285800  1
  Cu  Cu31  1  0.24948100  0.38879600  0.28358200  1
  Cu  Cu32  1  0.51820100  0.07620000  0.36442900  1
  Cu  Cu33  1  0.91266500  0.70819100  0.13845200  1
  Cu  Cu34  1  0.22152700  0.97480500  0.05606600  1
  Cu  Cu35  1  0.10189100  0.24296500  0.17285800  1
  Cu  Cu36  1  0.58733500  0.20819100  0.13845200  1
  Cu  Cu37  1  0.27847300  0.47480500  0.05606600  1
  Cu  Cu38  1  0.72152700  0.52519500  0.94393400  1
  Cu  Cu39  1  0.41266500  0.79180900  0.86154800  1
  Cu  Cu40  1  0.89810900  0.75703500  0.82714200  1
  Cu  Cu41  1  0.77847300  0.02519500  0.94393400  1
  Cu  Cu42  1  0.08733500  0.29180900  0.86154800  1
  Cu  Cu43  1  0.48179900  0.92380000  0.63557100  1
  Cu  Cu44  1  0.75051900  0.61120400  0.71641800  1
  Cu  Cu45  1  0.60189100  0.25703500  0.82714200  1
  Cu  Cu46  1  0.27967700  0.51166100  0.73501900  1
  Cu  Cu47  1  0.07380600  0.84431500  0.52475200  1
  Cu  Cu48  1  0.01820100  0.42380000  0.63557100  1
  Cu  Cu49  1  0.74948100  0.11120400  0.71641800  1
  Cu  Cu50  1  0.22032300  0.01166100  0.73501900  1
  Cu  Cu51  1  0.42619400  0.34431500  0.52475200  1
