# generated using pymatgen
data_Cu4NiC
_symmetry_space_group_name_H-M   'P 1'
_cell_length_a   8.74596300
_cell_length_b   8.42075600
_cell_length_c   14.94388685
_cell_angle_alpha   56.23482186
_cell_angle_beta   90.00000000
_cell_angle_gamma   90.00000000
_symmetry_Int_Tables_number   1
_chemical_formula_structural   Cu4NiC
_chemical_formula_sum   'Cu48 Ni12 C12'
_cell_volume   914.93823408
_cell_formula_units_Z   12
loop_
 _symmetry_equiv_pos_site_id
 _symmetry_equiv_pos_as_xyz
  1  'x, y, z'
loop_
 _atom_site_type_symbol
 _atom_site_label
 _atom_site_symmetry_multiplicity
 _atom_site_fract_x
 _atom_site_fract_y
 _atom_site_fract_z
 _atom_site_occupancy
  C  C0  1  0.71827400  0.61800200  0.18442800  1
  C  C1  1  0.21827400  0.38199800  0.31557200  1
  C  C2  1  0.78172600  0.61800200  0.68442800  1
  C  C3  1  0.28172600  0.38199800  0.81557200  1
  C  C4  1  0.96397800  0.13870300  0.61419200  1
  C  C5  1  0.53716000  0.35577600  0.39308100  1
  C  C6  1  0.46397800  0.86129700  0.88580800  1
  C  C7  1  0.03716000  0.64422400  0.10691900  1
  C  C8  1  0.96284000  0.35577600  0.89308100  1
  C  C9  1  0.53602200  0.13870300  0.11419200  1
  C  C10  1  0.46284000  0.64422400  0.60691900  1
  C  C11  1  0.03602200  0.86129700  0.38580800  1
  Ni  Ni12  1  0.24479200  0.46996100  0.49292000  1
  Ni  Ni13  1  0.11975900  0.05262600  0.84430200  1
  Ni  Ni14  1  0.39214100  0.75227300  0.14240600  1
  Ni  Ni15  1  0.89214100  0.24772700  0.35759400  1
  Ni  Ni16  1  0.61975900  0.94737400  0.65569800  1
  Ni  Ni17  1  0.74479200  0.53003900  0.00708000  1
  Ni  Ni18  1  0.25520800  0.46996100  0.99292000  1
  Ni  Ni19  1  0.38024100  0.05262600  0.34430200  1
  Ni  Ni20  1  0.10785900  0.75227300  0.64240600  1
  Ni  Ni21  1  0.60785900  0.24772700  0.85759400  1
  Ni  Ni22  1  0.88024100  0.94737400  0.15569800  1
  Ni  Ni23  1  0.75520800  0.53003900  0.50708000  1
  Cu  Cu24  1  0.63761400  0.51208400  0.44378100  1
  Cu  Cu25  1  0.61933400  0.05389600  0.87782100  1
  Cu  Cu26  1  0.90927600  0.75164300  0.17986700  1
  Cu  Cu27  1  0.81561400  0.33921600  0.59566700  1
  Cu  Cu28  1  0.12272800  0.34466200  0.56789900  1
  Cu  Cu29  1  0.28831900  0.05248500  0.82359400  1
  Cu  Cu30  1  0.08271300  0.90649100  0.95530800  1
  Cu  Cu31  1  0.50951400  0.63621900  0.22384400  1
  Cu  Cu32  1  0.31115500  0.38208300  0.43826200  1
  Cu  Cu33  1  0.24128200  0.65443300  0.18250100  1
  Cu  Cu34  1  0.43360000  0.76454100  0.04211000  1
  Cu  Cu35  1  0.02432500  0.02551900  0.77125000  1
  Cu  Cu36  1  0.52432500  0.97448100  0.72875000  1
  Cu  Cu37  1  0.93360000  0.23545900  0.45789000  1
  Cu  Cu38  1  0.74128200  0.34556700  0.31749900  1
  Cu  Cu39  1  0.81115500  0.61791700  0.06173800  1
  Cu  Cu40  1  0.58271300  0.09350900  0.54469200  1
  Cu  Cu41  1  0.00951400  0.36378100  0.27615600  1
  Cu  Cu42  1  0.78831900  0.94751500  0.67640600  1
  Cu  Cu43  1  0.62272800  0.65533800  0.93210100  1
  Cu  Cu44  1  0.31561400  0.66078400  0.90433300  1
  Cu  Cu45  1  0.11933400  0.94610400  0.62217900  1
  Cu  Cu46  1  0.40927600  0.24835700  0.32013300  1
  Cu  Cu47  1  0.13761400  0.48791600  0.05621900  1
  Cu  Cu48  1  0.86238600  0.51208400  0.94378100  1
  Cu  Cu49  1  0.59072400  0.75164300  0.67986700  1
  Cu  Cu50  1  0.88066600  0.05389600  0.37782100  1
  Cu  Cu51  1  0.68438600  0.33921600  0.09566700  1
  Cu  Cu52  1  0.37727200  0.34466200  0.06789900  1
  Cu  Cu53  1  0.21168100  0.05248500  0.32359400  1
  Cu  Cu54  1  0.99048600  0.63621900  0.72384400  1
  Cu  Cu55  1  0.41728700  0.90649100  0.45530800  1
  Cu  Cu56  1  0.18884500  0.38208300  0.93826200  1
  Cu  Cu57  1  0.25871800  0.65443300  0.68250100  1
  Cu  Cu58  1  0.06640000  0.76454100  0.54211000  1
  Cu  Cu59  1  0.47567500  0.02551900  0.27125000  1
  Cu  Cu60  1  0.97567500  0.97448100  0.22875000  1
  Cu  Cu61  1  0.56640000  0.23545900  0.95789000  1
  Cu  Cu62  1  0.75871800  0.34556700  0.81749900  1
  Cu  Cu63  1  0.68884500  0.61791700  0.56173800  1
  Cu  Cu64  1  0.49048600  0.36378100  0.77615600  1
  Cu  Cu65  1  0.91728700  0.09350900  0.04469200  1
  Cu  Cu66  1  0.71168100  0.94751500  0.17640600  1
  Cu  Cu67  1  0.87727200  0.65533800  0.43210100  1
  Cu  Cu68  1  0.18438600  0.66078400  0.40433300  1
  Cu  Cu69  1  0.09072400  0.24835700  0.82013300  1
  Cu  Cu70  1  0.38066600  0.94610400  0.12217900  1
  Cu  Cu71  1  0.36238600  0.48791600  0.55621900  1
