# generated using pymatgen
data_Cu3Ni3C22
_symmetry_space_group_name_H-M   'P 1'
_cell_length_a   5.88277537
_cell_length_b   5.88277537
_cell_length_c   9.64238509
_cell_angle_alpha   87.53895434
_cell_angle_beta   87.53895434
_cell_angle_gamma   60.61320595
_symmetry_Int_Tables_number   1
_chemical_formula_structural   Cu3Ni3C22
_chemical_formula_sum   'Cu3 Ni3 C22'
_cell_volume   290.39711412
_cell_formula_units_Z   1
loop_
 _symmetry_equiv_pos_site_id
 _symmetry_equiv_pos_as_xyz
  1  'x, y, z'
loop_
 _atom_site_type_symbol
 _atom_site_label
 _atom_site_symmetry_multiplicity
 _atom_site_fract_x
 _atom_site_fract_y
 _atom_site_fract_z
 _atom_site_occupancy
  C  C0  1  0.66312300  0.66312300  0.89501400  1
  C  C1  1  0.00931700  0.00931700  0.99460700  1
  C  C2  1  0.00443000  0.00443000  0.49474800  1
  C  C3  1  0.33295200  0.33295200  0.39564200  1
  C  C4  1  0.66299500  0.66299500  0.48657700  1
  C  C5  1  0.33113800  0.33113800  0.98886000  1
  Ni  Ni6  1  0.66031200  0.16169600  0.71454800  1
  Ni  Ni7  1  0.83200400  0.83200400  0.20916000  1
  Ni  Ni8  1  0.16169600  0.66031200  0.71454800  1
  Cu  Cu9  1  0.83158800  0.33996400  0.21566100  1
  Cu  Cu10  1  0.33996400  0.83158800  0.21566100  1
  Cu  Cu11  1  0.16860600  0.16860600  0.71191500  1
  C  C12  1  0.82915700  0.32731900  0.60267400  1
  C  C13  1  0.51356900  0.51356900  0.33255700  1
  C  C14  1  0.68017600  0.68017600  0.10493500  1
  C  C15  1  0.99083100  0.99083100  0.31030900  1
  C  C16  1  0.99338800  0.99338800  0.81077700  1
  C  C17  1  0.32731900  0.82915700  0.60267400  1
  C  C18  1  0.95734500  0.52777800  0.33694600  1
  C  C19  1  0.52777800  0.95734500  0.33694600  1
  C  C20  1  0.16590900  0.16590900  0.09803500  1
  C  C21  1  0.84241500  0.84241500  0.60589200  1
  C  C22  1  0.48473500  0.03351300  0.83338900  1
  C  C23  1  0.03351300  0.48473500  0.83338900  1
  C  C24  1  0.34009100  0.34009100  0.60307800  1
  C  C25  1  0.68300400  0.14808500  0.10657800  1
  C  C26  1  0.47578700  0.47578700  0.84341900  1
  C  C27  1  0.14808500  0.68300400  0.10657800  1
