# generated using pymatgen
data_Cu5NiC3
_symmetry_space_group_name_H-M   'P 1'
_cell_length_a   4.73155800
_cell_length_b   5.67537138
_cell_length_c   7.83299125
_cell_angle_alpha   86.21050918
_cell_angle_beta   88.69669061
_cell_angle_gamma   88.04059410
_symmetry_Int_Tables_number   1
_chemical_formula_structural   Cu5NiC3
_chemical_formula_sum   'Cu10 Ni2 C6'
_cell_volume   209.71517644
_cell_formula_units_Z   2
loop_
 _symmetry_equiv_pos_site_id
 _symmetry_equiv_pos_as_xyz
  1  'x, y, z'
loop_
 _atom_site_type_symbol
 _atom_site_label
 _atom_site_symmetry_multiplicity
 _atom_site_fract_x
 _atom_site_fract_y
 _atom_site_fract_z
 _atom_site_occupancy
  C  C0  1  0.51386100  0.49784300  0.99363000  1
  C  C1  1  0.52541700  0.81431500  0.66042300  1
  C  C2  1  0.49434700  0.16543700  0.33453900  1
  C  C3  1  0.98675900  0.66638800  0.34281700  1
  C  C4  1  0.98030500  0.34119700  0.67595200  1
  C  C5  1  0.99672600  0.01541400  0.99426900  1
  Ni  Ni6  1  0.79809500  0.61244400  0.57984300  1
  Ni  Ni7  1  0.81150600  0.30690000  0.88136600  1
  Cu  Cu8  1  0.80514400  0.96649700  0.23284300  1
  Cu  Cu9  1  0.69631900  0.46406800  0.23447900  1
  Cu  Cu10  1  0.68917300  0.81286800  0.89794100  1
  Cu  Cu11  1  0.70520500  0.11354200  0.56201100  1
  Cu  Cu12  1  0.30733100  0.85831800  0.43606300  1
  Cu  Cu13  1  0.29618900  0.54906600  0.76636300  1
  Cu  Cu14  1  0.30548500  0.20438300  0.10167700  1
  Cu  Cu15  1  0.20613200  0.04672700  0.75209700  1
  Cu  Cu16  1  0.19433100  0.70378100  0.10343400  1
  Cu  Cu17  1  0.18767800  0.36080900  0.45024900  1
