# generated using pymatgen
data_Cu3Ni2C15
_symmetry_space_group_name_H-M   'P 1'
_cell_length_a   9.32443600
_cell_length_b   8.81355700
_cell_length_c   15.42728068
_cell_angle_alpha   55.89259986
_cell_angle_beta   90.00000000
_cell_angle_gamma   90.00000000
_symmetry_Int_Tables_number   1
_chemical_formula_structural   Cu3Ni2C15
_chemical_formula_sum   'Cu12 Ni8 C60'
_cell_volume   1049.75311082
_cell_formula_units_Z   4
loop_
 _symmetry_equiv_pos_site_id
 _symmetry_equiv_pos_as_xyz
  1  'x, y, z'
loop_
 _atom_site_type_symbol
 _atom_site_label
 _atom_site_symmetry_multiplicity
 _atom_site_fract_x
 _atom_site_fract_y
 _atom_site_fract_z
 _atom_site_occupancy
  C  C0  1  0.51120200  0.58892100  0.34901500  1
  C  C1  1  0.08751400  0.22759000  0.68585000  1
  C  C2  1  0.77833400  0.63812000  0.18265900  1
  C  C3  1  0.27833400  0.36188000  0.31734100  1
  C  C4  1  0.58751400  0.77241000  0.81415000  1
  C  C5  1  0.01120200  0.41107900  0.15098500  1
  C  C6  1  0.98879800  0.58892100  0.84901500  1
  C  C7  1  0.41248600  0.22759000  0.18585000  1
  C  C8  1  0.72166600  0.63812000  0.68265900  1
  C  C9  1  0.22166600  0.36188000  0.81734100  1
  C  C10  1  0.91248600  0.77241000  0.31415000  1
  C  C11  1  0.48879800  0.41107900  0.65098500  1
  Ni  Ni12  1  0.02702300  0.86851200  0.90258300  1
  Ni  Ni13  1  0.45538800  0.66477800  0.09602900  1
  Ni  Ni14  1  0.95538800  0.33522200  0.40397100  1
  Ni  Ni15  1  0.52702300  0.13148800  0.59741700  1
  Ni  Ni16  1  0.47297700  0.86851200  0.40258300  1
  Ni  Ni17  1  0.04461200  0.66477800  0.59602900  1
  Ni  Ni18  1  0.54461200  0.33522200  0.90397100  1
  Ni  Ni19  1  0.97297700  0.13148800  0.09741700  1
  Cu  Cu20  1  0.25824600  0.45417500  0.49070900  1
  Cu  Cu21  1  0.37944500  0.05936500  0.83135700  1
  Cu  Cu22  1  0.10322000  0.71852500  0.15968500  1
  Cu  Cu23  1  0.60322000  0.28147500  0.34031500  1
  Cu  Cu24  1  0.87944500  0.94063500  0.66864300  1
  Cu  Cu25  1  0.75824600  0.54582500  0.00929100  1
  Cu  Cu26  1  0.24175400  0.45417500  0.99070900  1
  Cu  Cu27  1  0.12055500  0.05936500  0.33135700  1
  Cu  Cu28  1  0.39678000  0.71852500  0.65968500  1
  Cu  Cu29  1  0.89678000  0.28147500  0.84031500  1
  Cu  Cu30  1  0.62055500  0.94063500  0.16864300  1
  Cu  Cu31  1  0.74175400  0.54582500  0.50929100  1
  C  C32  1  0.86327000  0.52173100  0.44869900  1
  C  C33  1  0.87861300  0.07186600  0.89829000  1
  C  C34  1  0.66571800  0.36753700  0.59285600  1
  C  C35  1  0.57086500  0.74435400  0.20007800  1
  C  C36  1  0.36741800  0.32071800  0.58006100  1
  C  C37  1  0.99435200  0.64126700  0.25285900  1
  C  C38  1  0.22035700  0.08291700  0.79992700  1
  C  C39  1  0.39520000  0.92211700  0.95129900  1
  C  C40  1  0.25090100  0.61954300  0.19830100  1
  C  C41  1  0.19615100  0.35696400  0.44020400  1
  C  C42  1  0.47413900  0.99731500  0.77323800  1
  C  C43  1  0.03474700  0.67092300  0.08486700  1
  C  C44  1  0.53474700  0.32907700  0.41513300  1
  C  C45  1  0.97413900  0.00268500  0.72676200  1
  C  C46  1  0.69615100  0.64303600  0.05979600  1
  C  C47  1  0.75090100  0.38045700  0.30169900  1
  C  C48  1  0.89520000  0.07788300  0.54870100  1
  C  C49  1  0.72035700  0.91708300  0.70007300  1
  C  C50  1  0.49435200  0.35873300  0.24714100  1
  C  C51  1  0.86741800  0.67928200  0.91993900  1
  C  C52  1  0.07086500  0.25564600  0.29992200  1
  C  C53  1  0.16571800  0.63246300  0.90714400  1
  C  C54  1  0.37861300  0.92813400  0.60171000  1
  C  C55  1  0.36327000  0.47826900  0.05130100  1
  C  C56  1  0.63673000  0.52173100  0.94869900  1
  C  C57  1  0.62138700  0.07186600  0.39829000  1
  C  C58  1  0.83428200  0.36753700  0.09285600  1
  C  C59  1  0.92913500  0.74435400  0.70007800  1
  C  C60  1  0.13258200  0.32071800  0.08006100  1
  C  C61  1  0.50564800  0.64126700  0.75285900  1
  C  C62  1  0.27964300  0.08291700  0.29992700  1
  C  C63  1  0.10480000  0.92211700  0.45129900  1
  C  C64  1  0.24909900  0.61954300  0.69830100  1
  C  C65  1  0.30384900  0.35696400  0.94020400  1
  C  C66  1  0.02586100  0.99731500  0.27323800  1
  C  C67  1  0.46525300  0.67092300  0.58486700  1
  C  C68  1  0.96525300  0.32907700  0.91513300  1
  C  C69  1  0.52586100  0.00268500  0.22676200  1
  C  C70  1  0.80384900  0.64303600  0.55979600  1
  C  C71  1  0.74909900  0.38045700  0.80169900  1
  C  C72  1  0.60480000  0.07788300  0.04870100  1
  C  C73  1  0.77964300  0.91708300  0.20007300  1
  C  C74  1  0.00564800  0.35873300  0.74714100  1
  C  C75  1  0.63258200  0.67928200  0.41993900  1
  C  C76  1  0.42913500  0.25564600  0.79992200  1
  C  C77  1  0.33428200  0.63246300  0.40714400  1
  C  C78  1  0.12138700  0.92813400  0.10171000  1
  C  C79  1  0.13673000  0.47826900  0.55130100  1
