# generated using pymatgen
data_Cu14Ni2C13
_symmetry_space_group_name_H-M   'P 1'
_cell_length_a   7.19623000
_cell_length_b   7.05519100
_cell_length_c   13.34935804
_cell_angle_alpha   80.03349000
_cell_angle_beta   90.00000000
_cell_angle_gamma   90.00000000
_symmetry_Int_Tables_number   1
_chemical_formula_structural   Cu14Ni2C13
_chemical_formula_sum   'Cu28 Ni4 C26'
_cell_volume   667.52930371
_cell_formula_units_Z   2
loop_
 _symmetry_equiv_pos_site_id
 _symmetry_equiv_pos_as_xyz
  1  'x, y, z'
loop_
 _atom_site_type_symbol
 _atom_site_label
 _atom_site_symmetry_multiplicity
 _atom_site_fract_x
 _atom_site_fract_y
 _atom_site_fract_z
 _atom_site_occupancy
  C  C0  1  0.51876700  0.48949000  0.34018600  1
  C  C1  1  0.01876700  0.51051000  0.15981400  1
  C  C2  1  0.48123300  0.51051000  0.65981400  1
  C  C3  1  0.98123300  0.48949000  0.84018600  1
  C  C4  1  0.50000000  0.00000000  0.50000000  1
  C  C5  1  0.00000000  0.00000000  0.00000000  1
  C  C6  1  0.19615800  0.81909300  0.50854100  1
  C  C7  1  0.69615800  0.18090700  0.99145900  1
  C  C8  1  0.80384200  0.18090700  0.49145900  1
  C  C9  1  0.30384200  0.81909300  0.00854100  1
  C  C10  1  0.23770500  0.24460200  0.03133000  1
  C  C11  1  0.73770500  0.75539800  0.46867000  1
  C  C12  1  0.76229500  0.75539800  0.96867000  1
  C  C13  1  0.26229500  0.24460200  0.53133000  1
  C  C14  1  0.43353700  0.98118900  0.31800100  1
  C  C15  1  0.93353700  0.01881100  0.18199900  1
  C  C16  1  0.56646300  0.01881100  0.68199900  1
  C  C17  1  0.06646300  0.98118900  0.81800100  1
  C  C18  1  0.11800900  0.11914900  0.31481800  1
  C  C19  1  0.61800900  0.88085100  0.18518200  1
  C  C20  1  0.88199100  0.88085100  0.68518200  1
  C  C21  1  0.38199100  0.11914900  0.81481800  1
  C  C22  1  0.40256200  0.87026500  0.16531900  1
  C  C23  1  0.90256200  0.12973500  0.33468100  1
  C  C24  1  0.59743800  0.12973500  0.83468100  1
  C  C25  1  0.09743800  0.87026500  0.66531900  1
  Ni  Ni26  1  0.51277700  0.34197900  0.11928800  1
  Ni  Ni27  1  0.01277700  0.65802100  0.38071200  1
  Ni  Ni28  1  0.48722300  0.65802100  0.88071200  1
  Ni  Ni29  1  0.98722300  0.34197900  0.61928800  1
  Cu  Cu30  1  0.21966600  0.86002800  0.06060700  1
  Cu  Cu31  1  0.71966600  0.13997200  0.43939300  1
  Cu  Cu32  1  0.78033400  0.13997200  0.93939300  1
  Cu  Cu33  1  0.28033400  0.86002800  0.56060700  1
  Cu  Cu34  1  0.09823900  0.24542100  0.02580000  1
  Cu  Cu35  1  0.59823900  0.75457900  0.47420000  1
  Cu  Cu36  1  0.90176100  0.75457900  0.97420000  1
  Cu  Cu37  1  0.40176100  0.24542100  0.52580000  1
  Cu  Cu38  1  0.38067100  0.06082500  0.36658700  1
  Cu  Cu39  1  0.88067100  0.93917500  0.13341300  1
  Cu  Cu40  1  0.61932900  0.93917500  0.63341300  1
  Cu  Cu41  1  0.11932900  0.06082500  0.86658700  1
  Cu  Cu42  1  0.37614700  0.40308600  0.16248200  1
  Cu  Cu43  1  0.87614700  0.59691400  0.33751800  1
  Cu  Cu44  1  0.62385300  0.59691400  0.83751800  1
  Cu  Cu45  1  0.12385300  0.40308600  0.66248200  1
  Cu  Cu46  1  0.17546000  0.64075200  0.34966100  1
  Cu  Cu47  1  0.67546000  0.35924800  0.15033900  1
  Cu  Cu48  1  0.82454000  0.35924800  0.65033900  1
  Cu  Cu49  1  0.32454000  0.64075200  0.84966100  1
  Cu  Cu50  1  0.98475100  0.74208700  0.45805500  1
  Cu  Cu51  1  0.48475100  0.25791300  0.04194500  1
  Cu  Cu52  1  0.01524900  0.25791300  0.54194500  1
  Cu  Cu53  1  0.51524900  0.74208700  0.95805500  1
  Cu  Cu54  1  0.49708500  0.85841700  0.21994900  1
  Cu  Cu55  1  0.99708500  0.14158300  0.28005100  1
  Cu  Cu56  1  0.50291500  0.14158300  0.78005100  1
  Cu  Cu57  1  0.00291500  0.85841700  0.71994900  1
