# generated using pymatgen
data_Cu4NiC5
_symmetry_space_group_name_H-M   'P 1'
_cell_length_a   5.63571600
_cell_length_b   7.73281000
_cell_length_c   9.29063800
_cell_angle_alpha   90.00000000
_cell_angle_beta   90.00000000
_cell_angle_gamma   90.00000000
_symmetry_Int_Tables_number   1
_chemical_formula_structural   Cu4NiC5
_chemical_formula_sum   'Cu8 Ni2 C10'
_cell_volume   404.88527047
_cell_formula_units_Z   2
loop_
 _symmetry_equiv_pos_site_id
 _symmetry_equiv_pos_as_xyz
  1  'x, y, z'
loop_
 _atom_site_type_symbol
 _atom_site_label
 _atom_site_symmetry_multiplicity
 _atom_site_fract_x
 _atom_site_fract_y
 _atom_site_fract_z
 _atom_site_occupancy
  C  C0  1  0.24214600  0.76839200  0.79798100  1
  C  C1  1  0.24214600  0.23160800  0.79798100  1
  C  C2  1  0.77958900  0.50000000  0.00000000  1
  C  C3  1  0.24214600  0.76839200  0.20201900  1
  C  C4  1  0.24214600  0.23160800  0.20201900  1
  C  C5  1  0.75785400  0.73160800  0.29798100  1
  C  C6  1  0.75785400  0.26839200  0.29798100  1
  C  C7  1  0.22041100  0.00000000  0.50000000  1
  C  C8  1  0.75785400  0.73160800  0.70201900  1
  C  C9  1  0.75785400  0.26839200  0.70201900  1
  Ni  Ni10  1  0.82281800  0.00000000  0.00000000  1
  Ni  Ni11  1  0.17718200  0.50000000  0.50000000  1
  Cu  Cu12  1  0.97550800  0.00000000  0.71639100  1
  Cu  Cu13  1  0.53037800  0.75994600  0.00000000  1
  Cu  Cu14  1  0.53037800  0.24005400  0.00000000  1
  Cu  Cu15  1  0.97550800  0.00000000  0.28360900  1
  Cu  Cu16  1  0.02449200  0.50000000  0.21639100  1
  Cu  Cu17  1  0.46962200  0.74005400  0.50000000  1
  Cu  Cu18  1  0.46962200  0.25994600  0.50000000  1
  Cu  Cu19  1  0.02449200  0.50000000  0.78360900  1
