# generated using pymatgen
data_Cu6Ni2C3
_symmetry_space_group_name_H-M   'P 1'
_cell_length_a   6.19953002
_cell_length_b   9.23188246
_cell_length_c   8.37975340
_cell_angle_alpha   98.65516149
_cell_angle_beta   77.01791823
_cell_angle_gamma   105.18732257
_symmetry_Int_Tables_number   1
_chemical_formula_structural   Cu6Ni2C3
_chemical_formula_sum   'Cu24 Ni8 C12'
_cell_volume   448.87427204
_cell_formula_units_Z   4
loop_
 _symmetry_equiv_pos_site_id
 _symmetry_equiv_pos_as_xyz
  1  'x, y, z'
loop_
 _atom_site_type_symbol
 _atom_site_label
 _atom_site_symmetry_multiplicity
 _atom_site_fract_x
 _atom_site_fract_y
 _atom_site_fract_z
 _atom_site_occupancy
  C  C0  1  0.98298900  0.33875200  0.89238800  1
  C  C1  1  0.23312700  0.58923200  0.39237000  1
  C  C2  1  0.48297100  0.83873000  0.89235100  1
  C  C3  1  0.73306000  0.08925500  0.39238100  1
  C  C4  1  0.76673400  0.41088900  0.60772000  1
  C  C5  1  0.01717600  0.66113700  0.10754900  1
  C  C6  1  0.26671400  0.91087000  0.60768800  1
  C  C7  1  0.51723900  0.16112200  0.10754200  1
  C  C8  1  0.50001600  0.50005300  0.00008800  1
  C  C9  1  0.74999700  0.74994900  0.49990900  1
  C  C10  1  0.00002700  0.00011000  0.00005300  1
  C  C11  1  0.24995900  0.24989200  0.49994900  1
  Ni  Ni12  1  0.67734600  0.44099200  0.29435900  1
  Ni  Ni13  1  0.92742300  0.69063400  0.79419400  1
  Ni  Ni14  1  0.17737400  0.94102000  0.29431100  1
  Ni  Ni15  1  0.42743600  0.19061300  0.79420000  1
  Ni  Ni16  1  0.07262900  0.30949200  0.20577100  1
  Ni  Ni17  1  0.32257100  0.55886700  0.70571800  1
  Ni  Ni18  1  0.57263900  0.80951300  0.20572100  1
  Ni  Ni19  1  0.82256600  0.05888200  0.70572100  1
  Cu  Cu20  1  0.14473500  0.38314700  0.07606200  1
  Cu  Cu21  1  0.39487600  0.63239700  0.57588000  1
  Cu  Cu22  1  0.64472400  0.88316200  0.07606000  1
  Cu  Cu23  1  0.89483500  0.13238000  0.57589800  1
  Cu  Cu24  1  0.61748500  0.37987000  0.15598100  1
  Cu  Cu25  1  0.86785500  0.62945900  0.65559300  1
  Cu  Cu26  1  0.11747900  0.87988500  0.15594500  1
  Cu  Cu27  1  0.36789900  0.12944600  0.65562800  1
  Cu  Cu28  1  0.81291000  0.57464700  0.30214700  1
  Cu  Cu29  1  0.06269100  0.82434700  0.80226700  1
  Cu  Cu30  1  0.31289400  0.07462900  0.30211600  1
  Cu  Cu31  1  0.56269800  0.32433700  0.80228100  1
  Cu  Cu32  1  0.93714600  0.17586200  0.19779300  1
  Cu  Cu33  1  0.18725500  0.42515800  0.69782400  1
  Cu  Cu34  1  0.43713100  0.67584200  0.19776700  1
  Cu  Cu35  1  0.68728500  0.92517400  0.69782400  1
  Cu  Cu36  1  0.13252100  0.37053500  0.34425600  1
  Cu  Cu37  1  0.38213400  0.62011600  0.84419800  1
  Cu  Cu38  1  0.63250000  0.87054700  0.34422400  1
  Cu  Cu39  1  0.88212300  0.12013900  0.84416800  1
  Cu  Cu40  1  0.60518300  0.36744100  0.42414700  1
  Cu  Cu41  1  0.85520100  0.61699200  0.92392200  1
  Cu  Cu42  1  0.10519100  0.86746600  0.42412600  1
  Cu  Cu43  1  0.35525600  0.11701600  0.92391200  1
