# generated using pymatgen
data_Cu(Ni2C3)2
_symmetry_space_group_name_H-M   'P 1'
_cell_length_a   11.40509300
_cell_length_b   5.94085900
_cell_length_c   10.00075508
_cell_angle_alpha   55.87597656
_cell_angle_beta   90.00000000
_cell_angle_gamma   90.00000000
_symmetry_Int_Tables_number   1
_chemical_formula_structural   Cu(Ni2C3)2
_chemical_formula_sum   'Cu4 Ni16 C24'
_cell_volume   560.94399895
_cell_formula_units_Z   4
loop_
 _symmetry_equiv_pos_site_id
 _symmetry_equiv_pos_as_xyz
  1  'x, y, z'
loop_
 _atom_site_type_symbol
 _atom_site_label
 _atom_site_symmetry_multiplicity
 _atom_site_fract_x
 _atom_site_fract_y
 _atom_site_fract_z
 _atom_site_occupancy
  C  C0  1  0.07468200  0.27125200  0.90581300  1
  C  C1  1  0.42531800  0.27125200  0.40581300  1
  C  C2  1  0.92531800  0.72874800  0.09418700  1
  C  C3  1  0.57468200  0.72874800  0.59418700  1
  Ni  Ni4  1  0.92703800  0.25044100  0.66085900  1
  Ni  Ni5  1  0.57296200  0.25044100  0.16085900  1
  Ni  Ni6  1  0.07296200  0.74955900  0.33914100  1
  Ni  Ni7  1  0.42703800  0.74955900  0.83914100  1
  Ni  Ni8  1  0.20266700  0.37569700  0.63691900  1
  Ni  Ni9  1  0.29733300  0.37569700  0.13691900  1
  Ni  Ni10  1  0.79733300  0.62430300  0.36308100  1
  Ni  Ni11  1  0.70266700  0.62430300  0.86308100  1
  Ni  Ni12  1  0.10846000  0.60327900  0.57998600  1
  Ni  Ni13  1  0.39154000  0.60327900  0.07998600  1
  Ni  Ni14  1  0.89154000  0.39672100  0.42001400  1
  Ni  Ni15  1  0.60846000  0.39672100  0.92001400  1
  Ni  Ni16  1  0.43988000  0.02701800  0.82300100  1
  Ni  Ni17  1  0.06012000  0.02701800  0.32300100  1
  Ni  Ni18  1  0.56012000  0.97298200  0.17699900  1
  Ni  Ni19  1  0.93988000  0.97298200  0.67699900  1
  Cu  Cu20  1  0.64579600  0.22596300  0.64704200  1
  Cu  Cu21  1  0.85420400  0.22596300  0.14704200  1
  Cu  Cu22  1  0.35420400  0.77403700  0.35295800  1
  Cu  Cu23  1  0.14579600  0.77403700  0.85295800  1
  C  C24  1  0.89644500  0.15077600  0.61715600  1
  C  C25  1  0.60355500  0.15077600  0.11715600  1
  C  C26  1  0.10355500  0.84922400  0.38284400  1
  C  C27  1  0.39644500  0.84922400  0.88284400  1
  C  C28  1  0.08375900  0.86915700  0.97916900  1
  C  C29  1  0.41624100  0.86915700  0.47916900  1
  C  C30  1  0.91624100  0.13084300  0.02083100  1
  C  C31  1  0.58375900  0.13084300  0.52083100  1
  C  C32  1  0.69005100  0.56252400  0.51635400  1
  C  C33  1  0.80994900  0.56252400  0.01635400  1
  C  C34  1  0.30994900  0.43747600  0.48364600  1
  C  C35  1  0.19005100  0.43747600  0.98364600  1
  C  C36  1  0.13023100  0.41667100  0.67549500  1
  C  C37  1  0.36976900  0.41667100  0.17549500  1
  C  C38  1  0.86976900  0.58332900  0.32450500  1
  C  C39  1  0.63023100  0.58332900  0.82450500  1
  C  C40  1  0.47768700  0.69901200  0.28689500  1
  C  C41  1  0.02231300  0.69901200  0.78689500  1
  C  C42  1  0.52231300  0.30098800  0.71310500  1
  C  C43  1  0.97768700  0.30098800  0.21310500  1
