# generated using pymatgen
data_Cu2Ni4C19
_symmetry_space_group_name_H-M   'P 1'
_cell_length_a   8.29000100
_cell_length_b   9.22598800
_cell_length_c   12.73360200
_cell_angle_alpha   90.00000000
_cell_angle_beta   90.00000000
_cell_angle_gamma   90.00000000
_symmetry_Int_Tables_number   1
_chemical_formula_structural   Cu2Ni4C19
_chemical_formula_sum   'Cu8 Ni16 C76'
_cell_volume   973.90980865
_cell_formula_units_Z   4
loop_
 _symmetry_equiv_pos_site_id
 _symmetry_equiv_pos_as_xyz
  1  'x, y, z'
loop_
 _atom_site_type_symbol
 _atom_site_label
 _atom_site_symmetry_multiplicity
 _atom_site_fract_x
 _atom_site_fract_y
 _atom_site_fract_z
 _atom_site_occupancy
  C  C0  1  0.00000000  0.50000000  0.50000000  1
  C  C1  1  0.50000000  0.00000000  0.50000000  1
  C  C2  1  0.50000000  0.50000000  0.00000000  1
  C  C3  1  0.00000000  0.00000000  0.00000000  1
  C  C4  1  0.58699800  0.73451200  0.66553700  1
  C  C5  1  0.91300200  0.23451200  0.33446300  1
  C  C6  1  0.08699800  0.26548800  0.83446300  1
  C  C7  1  0.41300200  0.76548800  0.16553700  1
  C  C8  1  0.41300200  0.26548800  0.33446300  1
  C  C9  1  0.08699800  0.76548800  0.66553700  1
  C  C10  1  0.91300200  0.73451200  0.16553700  1
  C  C11  1  0.58699800  0.23451200  0.83446300  1
  C  C12  1  0.74531300  0.61000600  0.65193100  1
  C  C13  1  0.75468700  0.11000600  0.34806900  1
  C  C14  1  0.24531300  0.38999400  0.84806900  1
  C  C15  1  0.25468700  0.88999400  0.15193100  1
  C  C16  1  0.25468700  0.38999400  0.34806900  1
  C  C17  1  0.24531300  0.88999400  0.65193100  1
  C  C18  1  0.75468700  0.61000600  0.15193100  1
  C  C19  1  0.74531300  0.11000600  0.84806900  1
  C  C20  1  0.66954600  0.37185600  0.59478600  1
  C  C21  1  0.83045400  0.87185600  0.40521400  1
  C  C22  1  0.16954600  0.62814400  0.90521400  1
  C  C23  1  0.33045400  0.12814400  0.09478600  1
  C  C24  1  0.33045400  0.62814400  0.40521400  1
  C  C25  1  0.16954600  0.12814400  0.59478600  1
  C  C26  1  0.83045400  0.37185600  0.09478600  1
  C  C27  1  0.66954600  0.87185600  0.90521400  1
  C  C28  1  0.46749000  0.31814900  0.60195900  1
  C  C29  1  0.03251000  0.81814900  0.39804100  1
  C  C30  1  0.96749000  0.68185100  0.89804100  1
  C  C31  1  0.53251000  0.18185100  0.10195900  1
  C  C32  1  0.53251000  0.68185100  0.39804100  1
  C  C33  1  0.96749000  0.18185100  0.60195900  1
  C  C34  1  0.03251000  0.31814900  0.10195900  1
  C  C35  1  0.46749000  0.81814900  0.89804100  1
  C  C36  1  0.28438600  0.50299000  0.62455800  1
  C  C37  1  0.21561400  0.00299000  0.37544200  1
  C  C38  1  0.78438600  0.49701000  0.87544200  1
  C  C39  1  0.71561400  0.99701000  0.12455800  1
  C  C40  1  0.71561400  0.49701000  0.37544200  1
  C  C41  1  0.78438600  0.99701000  0.62455800  1
  C  C42  1  0.21561400  0.50299000  0.12455800  1
  C  C43  1  0.28438600  0.00299000  0.87544200  1
  C  C44  1  0.51496800  0.52902400  0.64616900  1
  C  C45  1  0.98503200  0.02902400  0.35383100  1
  C  C46  1  0.01496800  0.47097600  0.85383100  1
  C  C47  1  0.48503200  0.97097600  0.14616900  1
  C  C48  1  0.48503200  0.47097600  0.35383100  1
  C  C49  1  0.01496800  0.97097600  0.64616900  1
  C  C50  1  0.98503200  0.52902400  0.14616900  1
  C  C51  1  0.51496800  0.02902400  0.85383100  1
  Ni  Ni52  1  0.62573400  0.62946900  0.66574000  1
  Ni  Ni53  1  0.87426600  0.12946900  0.33426000  1
  Ni  Ni54  1  0.12573400  0.37053100  0.83426000  1
  Ni  Ni55  1  0.37426600  0.87053100  0.16574000  1
  Ni  Ni56  1  0.37426600  0.37053100  0.33426000  1
  Ni  Ni57  1  0.12573400  0.87053100  0.66574000  1
  Ni  Ni58  1  0.87426600  0.62946900  0.16574000  1
  Ni  Ni59  1  0.62573400  0.12946900  0.83426000  1
  Ni  Ni60  1  0.55295200  0.39574400  0.61543500  1
  Ni  Ni61  1  0.94704800  0.89574400  0.38456500  1
  Ni  Ni62  1  0.05295200  0.60425600  0.88456500  1
  Ni  Ni63  1  0.44704800  0.10425600  0.11543500  1
  Ni  Ni64  1  0.44704800  0.60425600  0.38456500  1
  Ni  Ni65  1  0.05295200  0.10425600  0.61543500  1
  Ni  Ni66  1  0.94704800  0.39574400  0.11543500  1
  Ni  Ni67  1  0.55295200  0.89574400  0.88456500  1
  Cu  Cu68  1  0.36369300  0.56896000  0.66135900  1
  Cu  Cu69  1  0.13630700  0.06896000  0.33864100  1
  Cu  Cu70  1  0.86369300  0.43104000  0.83864100  1
  Cu  Cu71  1  0.63630700  0.93104000  0.16135900  1
  Cu  Cu72  1  0.63630700  0.43104000  0.33864100  1
  Cu  Cu73  1  0.86369300  0.93104000  0.66135900  1
  Cu  Cu74  1  0.13630700  0.56896000  0.16135900  1
  Cu  Cu75  1  0.36369300  0.06896000  0.83864100  1
  C  C76  1  0.96858200  0.59555900  0.61352600  1
  C  C77  1  0.53141800  0.09555900  0.38647400  1
  C  C78  1  0.46858200  0.40444100  0.88647400  1
  C  C79  1  0.03141800  0.90444100  0.11352600  1
  C  C80  1  0.03141800  0.40444100  0.38647400  1
  C  C81  1  0.46858200  0.90444100  0.61352600  1
  C  C82  1  0.53141800  0.59555900  0.11352600  1
  C  C83  1  0.96858200  0.09555900  0.88647400  1
  C  C84  1  0.12168900  0.63613800  0.45329200  1
  C  C85  1  0.37831100  0.13613800  0.54670800  1
  C  C86  1  0.62168900  0.36386200  0.04670800  1
  C  C87  1  0.87831100  0.86386200  0.95329200  1
  C  C88  1  0.87831100  0.36386200  0.54670800  1
  C  C89  1  0.62168900  0.86386200  0.45329200  1
  C  C90  1  0.37831100  0.63613800  0.95329200  1
  C  C91  1  0.12168900  0.13613800  0.04670800  1
  C  C92  1  0.16551800  0.41600100  0.55655400  1
  C  C93  1  0.33448200  0.91600100  0.44344600  1
  C  C94  1  0.66551800  0.58399900  0.94344600  1
  C  C95  1  0.83448200  0.08399900  0.05655400  1
  C  C96  1  0.83448200  0.58399900  0.44344600  1
  C  C97  1  0.66551800  0.08399900  0.55655400  1
  C  C98  1  0.33448200  0.41600100  0.05655400  1
  C  C99  1  0.16551800  0.91600100  0.94344600  1
