# generated using pymatgen
data_Cu(NiC)4
_symmetry_space_group_name_H-M   'P 1'
_cell_length_a   6.51064500
_cell_length_b   10.75210400
_cell_length_c   11.17077500
_cell_angle_alpha   90.00000000
_cell_angle_beta   90.00000000
_cell_angle_gamma   90.00000000
_symmetry_Int_Tables_number   1
_chemical_formula_structural   Cu(NiC)4
_chemical_formula_sum   'Cu8 Ni32 C32'
_cell_volume   781.98923851
_cell_formula_units_Z   8
loop_
 _symmetry_equiv_pos_site_id
 _symmetry_equiv_pos_as_xyz
  1  'x, y, z'
loop_
 _atom_site_type_symbol
 _atom_site_label
 _atom_site_symmetry_multiplicity
 _atom_site_fract_x
 _atom_site_fract_y
 _atom_site_fract_z
 _atom_site_occupancy
  C  C0  1  0.75000000  0.02656800  0.27071100  1
  C  C1  1  0.25000000  0.23123100  0.08422100  1
  C  C2  1  0.50589600  0.23969200  0.33206900  1
  C  C3  1  0.99410400  0.23969200  0.33206900  1
  C  C4  1  0.00589600  0.26030800  0.83206900  1
  C  C5  1  0.49410400  0.26030800  0.83206900  1
  C  C6  1  0.75000000  0.26876900  0.58422100  1
  C  C7  1  0.25000000  0.47343200  0.77071100  1
  C  C8  1  0.75000000  0.52656800  0.22928900  1
  C  C9  1  0.25000000  0.73123100  0.41577900  1
  C  C10  1  0.50589600  0.73969200  0.16793100  1
  C  C11  1  0.99410400  0.73969200  0.16793100  1
  C  C12  1  0.00589600  0.76030800  0.66793100  1
  C  C13  1  0.49410400  0.76030800  0.66793100  1
  C  C14  1  0.75000000  0.76876900  0.91577900  1
  C  C15  1  0.25000000  0.97343200  0.72928900  1
  C  C16  1  0.00000000  0.00000000  0.00000000  1
  C  C17  1  0.50000000  0.00000000  0.00000000  1
  C  C18  1  0.00000000  0.00000000  0.50000000  1
  C  C19  1  0.50000000  0.00000000  0.50000000  1
  C  C20  1  0.00000000  0.50000000  0.50000000  1
  C  C21  1  0.50000000  0.50000000  0.50000000  1
  C  C22  1  0.00000000  0.50000000  0.00000000  1
  C  C23  1  0.50000000  0.50000000  0.00000000  1
  C  C24  1  0.75000000  0.02076200  0.74612800  1
  C  C25  1  0.75000000  0.24586700  0.08007000  1
  C  C26  1  0.25000000  0.25413300  0.58007000  1
  C  C27  1  0.25000000  0.47923800  0.24612800  1
  C  C28  1  0.75000000  0.52076200  0.75387200  1
  C  C29  1  0.75000000  0.74586700  0.41993000  1
  C  C30  1  0.25000000  0.75413300  0.91993000  1
  C  C31  1  0.25000000  0.97923800  0.25387200  1
  Ni  Ni32  1  0.25000000  0.02899000  0.12229200  1
  Ni  Ni33  1  0.05607000  0.03495700  0.31486500  1
  Ni  Ni34  1  0.44393000  0.03495700  0.31486500  1
  Ni  Ni35  1  0.25000000  0.11043200  0.56165200  1
  Ni  Ni36  1  0.75000000  0.16526100  0.74462000  1
  Ni  Ni37  1  0.55369500  0.19585500  0.01668800  1
  Ni  Ni38  1  0.94630500  0.19585500  0.01668800  1
  Ni  Ni39  1  0.75000000  0.21579100  0.21569400  1
  Ni  Ni40  1  0.25000000  0.28420900  0.71569400  1
  Ni  Ni41  1  0.05369500  0.30414500  0.51668800  1
  Ni  Ni42  1  0.44630500  0.30414500  0.51668800  1
  Ni  Ni43  1  0.25000000  0.33473900  0.24462000  1
  Ni  Ni44  1  0.75000000  0.38956800  0.06165200  1
  Ni  Ni45  1  0.55607000  0.46504300  0.81486500  1
  Ni  Ni46  1  0.94393000  0.46504300  0.81486500  1
  Ni  Ni47  1  0.75000000  0.47101000  0.62229200  1
  Ni  Ni48  1  0.25000000  0.52899000  0.37770800  1
  Ni  Ni49  1  0.05607000  0.53495700  0.18513500  1
  Ni  Ni50  1  0.44393000  0.53495700  0.18513500  1
  Ni  Ni51  1  0.25000000  0.61043200  0.93834800  1
  Ni  Ni52  1  0.75000000  0.66526100  0.75538000  1
  Ni  Ni53  1  0.55369500  0.69585500  0.48331200  1
  Ni  Ni54  1  0.94630500  0.69585500  0.48331200  1
  Ni  Ni55  1  0.75000000  0.71579100  0.28430600  1
  Ni  Ni56  1  0.25000000  0.78420900  0.78430600  1
  Ni  Ni57  1  0.05369500  0.80414500  0.98331200  1
  Ni  Ni58  1  0.44630500  0.80414500  0.98331200  1
  Ni  Ni59  1  0.25000000  0.83473900  0.25538000  1
  Ni  Ni60  1  0.75000000  0.88956800  0.43834800  1
  Ni  Ni61  1  0.55607000  0.96504300  0.68513500  1
  Ni  Ni62  1  0.94393000  0.96504300  0.68513500  1
  Ni  Ni63  1  0.75000000  0.97101000  0.87770800  1
  Cu  Cu64  1  0.25000000  0.05211800  0.88335200  1
  Cu  Cu65  1  0.75000000  0.12896800  0.46871800  1
  Cu  Cu66  1  0.25000000  0.37103200  0.96871800  1
  Cu  Cu67  1  0.75000000  0.44788200  0.38335200  1
  Cu  Cu68  1  0.25000000  0.55211800  0.61664800  1
  Cu  Cu69  1  0.75000000  0.62896800  0.03128200  1
  Cu  Cu70  1  0.25000000  0.87103200  0.53128200  1
  Cu  Cu71  1  0.75000000  0.94788200  0.11664800  1
