# generated using pymatgen
data_Cu13Ni3C80
_symmetry_space_group_name_H-M   'P 1'
_cell_length_a   5.01981900
_cell_length_b   8.72539369
_cell_length_c   19.47471164
_cell_angle_alpha   97.89058642
_cell_angle_beta   94.72778812
_cell_angle_gamma   89.36450859
_symmetry_Int_Tables_number   1
_chemical_formula_structural   Cu13Ni3C80
_chemical_formula_sum   'Cu13 Ni3 C80'
_cell_volume   842.03946150
_cell_formula_units_Z   1
loop_
 _symmetry_equiv_pos_site_id
 _symmetry_equiv_pos_as_xyz
  1  'x, y, z'
loop_
 _atom_site_type_symbol
 _atom_site_label
 _atom_site_symmetry_multiplicity
 _atom_site_fract_x
 _atom_site_fract_y
 _atom_site_fract_z
 _atom_site_occupancy
  C  C0  1  0.98950600  0.16781700  0.24946400  1
  C  C1  1  0.87323300  0.37433500  0.37500900  1
  C  C2  1  0.75132700  0.24919200  0.99953800  1
  C  C3  1  0.74075500  0.92088800  0.00026600  1
  C  C4  1  0.99141700  0.16780800  0.74929000  1
  C  C5  1  0.75543700  0.57919500  0.49970200  1
  C  C6  1  0.87435500  0.37464000  0.87488600  1
  C  C7  1  0.75341200  0.25019300  0.50004800  1
  C  C8  1  0.73961000  0.92006700  0.50008900  1
  C  C9  1  0.62323500  0.12395900  0.12508300  1
  C  C10  1  0.75437400  0.57891500  0.99980900  1
  C  C11  1  0.50838600  0.33084400  0.25040200  1
  C  C12  1  0.62303100  0.12396500  0.62504100  1
  C  C13  1  0.49887700  0.00045200  0.24983500  1
  C  C14  1  0.48996700  0.66950600  0.25012600  1
  C  C15  1  0.50553500  0.33099600  0.75019800  1
  C  C16  1  0.37460000  0.87502200  0.37493200  1
  C  C17  1  0.50073300  0.00053100  0.74983300  1
  C  C18  1  0.25080900  0.74998100  0.00007100  1
  C  C19  1  0.49061300  0.66876200  0.75010900  1
  C  C20  1  0.24438000  0.42053800  0.99985600  1
  C  C21  1  0.37476800  0.87522300  0.87505500  1
  C  C22  1  0.25905000  0.07996000  0.50005000  1
  C  C23  1  0.25004900  0.75080100  0.49996300  1
  C  C24  1  0.12672300  0.62602000  0.12488600  1
  C  C25  1  0.24403600  0.42019700  0.50030200  1
  C  C26  1  0.01088600  0.83216200  0.25037100  1
  C  C27  1  0.25955400  0.07931800  0.99961000  1
  C  C28  1  0.12466900  0.62462600  0.62478800  1
  C  C29  1  0.00182900  0.50064900  0.25046200  1
  C  C30  1  0.01059300  0.83152300  0.75019000  1
  C  C31  1  0.00251000  0.50033300  0.75005800  1
  Ni  Ni32  1  0.37555800  0.54145300  0.37494500  1
  Ni  Ni33  1  0.37414900  0.54132900  0.87451900  1
  Ni  Ni34  1  0.12619100  0.29181100  0.62516700  1
  Cu  Cu35  1  0.86739600  0.70646200  0.37448100  1
  Cu  Cu36  1  0.88082200  0.03892300  0.37520500  1
  Cu  Cu37  1  0.86559200  0.70732700  0.87453400  1
  Cu  Cu38  1  0.88276400  0.03933300  0.87564000  1
  Cu  Cu39  1  0.63002500  0.78846800  0.12466800  1
  Cu  Cu40  1  0.62264700  0.45289100  0.12406300  1
  Cu  Cu41  1  0.62974500  0.78842400  0.62513100  1
  Cu  Cu42  1  0.61926900  0.45524700  0.62448800  1
  Cu  Cu43  1  0.37185400  0.21205300  0.37536000  1
  Cu  Cu44  1  0.37387600  0.21245900  0.87544300  1
  Cu  Cu45  1  0.11970900  0.96135300  0.12526100  1
  Cu  Cu46  1  0.12877200  0.29713700  0.12599700  1
  Cu  Cu47  1  0.12095900  0.96182400  0.62533900  1
  C  C48  1  0.96858400  0.10597300  0.06950800  1
  C  C49  1  0.91983400  0.78407900  0.06858700  1
  C  C50  1  0.93415200  0.42296700  0.06712300  1
  C  C51  1  0.96582400  0.10790300  0.56941800  1
  C  C52  1  0.82964300  0.96608500  0.18121800  1
  C  C53  1  0.81626700  0.32677700  0.18286900  1
  C  C54  1  0.91960600  0.78597700  0.56858900  1
  C  C55  1  0.93199900  0.42726100  0.56778200  1
  C  C56  1  0.78172500  0.64372600  0.18034600  1
  C  C57  1  0.71802900  0.85255100  0.31857600  1
  C  C58  1  0.83067300  0.96496600  0.68137600  1
  C  C59  1  0.82393700  0.32367800  0.68190500  1
  C  C60  1  0.67563700  0.53376100  0.31867200  1
  C  C61  1  0.67349900  0.17658700  0.31782800  1
  C  C62  1  0.78210900  0.64358800  0.68096700  1
  C  C63  1  0.71907900  0.85214700  0.81872900  1
  C  C64  1  0.46351700  0.60276700  0.06876800  1
  C  C65  1  0.56899800  0.71374300  0.43045000  1
  C  C66  1  0.57515800  0.07378400  0.43224300  1
  C  C67  1  0.67423800  0.53260100  0.81858800  1
  C  C68  1  0.67325900  0.17565000  0.81816900  1
  C  C69  1  0.42711900  0.92693500  0.06790900  1
  C  C70  1  0.43788200  0.28773000  0.06889300  1
  C  C71  1  0.53912500  0.39658600  0.43135300  1
  C  C72  1  0.46768200  0.60287900  0.56882000  1
  C  C73  1  0.57058000  0.71326700  0.93041400  1
  C  C74  1  0.57570300  0.07252100  0.93247200  1
  C  C75  1  0.32349900  0.82349100  0.18196000  1
  C  C76  1  0.31274000  0.46270100  0.18127100  1
  C  C77  1  0.42401200  0.92728500  0.56770900  1
  C  C78  1  0.42767700  0.28484700  0.56922600  1
  C  C79  1  0.53815400  0.39568800  0.93113800  1
  C  C80  1  0.28522100  0.14739200  0.18132600  1
  C  C81  1  0.21472700  0.35803400  0.31946900  1
  C  C82  1  0.32539200  0.82431000  0.68219500  1
  C  C83  1  0.31748200  0.46368400  0.68084400  1
  C  C84  1  0.18055100  0.67774600  0.31779700  1
  C  C85  1  0.16987200  0.03578600  0.31866300  1
  C  C86  1  0.28939100  0.14652400  0.68155100  1
  C  C87  1  0.21361700  0.35860400  0.81944200  1
  C  C88  1  0.07377000  0.57384500  0.43168900  1
  C  C89  1  0.08088200  0.21472600  0.43126700  1
  C  C90  1  0.17988100  0.67809800  0.81802400  1
  C  C91  1  0.17131500  0.03630900  0.81907600  1
  C  C92  1  0.03197700  0.89480200  0.43126300  1
  C  C93  1  0.07348500  0.57376800  0.93167500  1
  C  C94  1  0.08155300  0.21517300  0.93168500  1
  C  C95  1  0.03335300  0.89579100  0.93159800  1
