# generated using pymatgen
data_Cu3(NiC4)5
_symmetry_space_group_name_H-M   'P 1'
_cell_length_a   6.08566851
_cell_length_b   6.08566851
_cell_length_c   10.06849003
_cell_angle_alpha   89.86157994
_cell_angle_beta   89.86157994
_cell_angle_gamma   59.62882313
_symmetry_Int_Tables_number   1
_chemical_formula_structural   Cu3(NiC4)5
_chemical_formula_sum   'Cu3 Ni5 C20'
_cell_volume   321.71650172
_cell_formula_units_Z   1
loop_
 _symmetry_equiv_pos_site_id
 _symmetry_equiv_pos_as_xyz
  1  'x, y, z'
loop_
 _atom_site_type_symbol
 _atom_site_label
 _atom_site_symmetry_multiplicity
 _atom_site_fract_x
 _atom_site_fract_y
 _atom_site_fract_z
 _atom_site_occupancy
  C  C0  1  0.66749700  0.66749700  0.09275600  1
  C  C1  1  0.00016100  0.00016100  0.01282700  1
  C  C2  1  0.00402300  0.00402300  0.50859500  1
  C  C3  1  0.33342100  0.33342100  0.60828000  1
  Ni  Ni4  1  0.65592200  0.65592200  0.50620800  1
  Ni  Ni5  1  0.82311300  0.82311300  0.77685100  1
  Ni  Ni6  1  0.32677700  0.32677700  0.00226600  1
  Ni  Ni7  1  0.18952200  0.62645400  0.28586300  1
  Ni  Ni8  1  0.62645400  0.18952200  0.28586300  1
  Cu  Cu9  1  0.34041000  0.82957700  0.78807500  1
  Cu  Cu10  1  0.82957700  0.34041000  0.78807500  1
  Cu  Cu11  1  0.17345900  0.17345900  0.28620400  1
  C  C12  1  0.33678300  0.82878100  0.40519200  1
  C  C13  1  0.52514900  0.52514900  0.64672400  1
  C  C14  1  0.67594500  0.67594500  0.90094000  1
  C  C15  1  0.99379900  0.99379900  0.69143700  1
  C  C16  1  0.00055300  0.00055300  0.19607300  1
  C  C17  1  0.82878100  0.33678300  0.40519200  1
  C  C18  1  0.52453200  0.96494800  0.65468700  1
  C  C19  1  0.96494800  0.52453200  0.65468700  1
  C  C20  1  0.16793900  0.16793900  0.91069500  1
  C  C21  1  0.82976100  0.82976100  0.40837100  1
  C  C22  1  0.04036300  0.48667000  0.15354000  1
  C  C23  1  0.48667000  0.04036300  0.15354000  1
  C  C24  1  0.32303800  0.32303800  0.42054100  1
  C  C25  1  0.15803100  0.66058900  0.90317500  1
  C  C26  1  0.48654300  0.48654300  0.14241100  1
  C  C27  1  0.66058900  0.15803100  0.90317500  1
