# generated using pymatgen
data_Cu4NiC
_symmetry_space_group_name_H-M   'P 1'
_cell_length_a   8.89284865
_cell_length_b   8.89284865
_cell_length_c   8.89284855
_cell_angle_alpha   64.27159013
_cell_angle_beta   64.27159013
_cell_angle_gamma   64.27159623
_symmetry_Int_Tables_number   1
_chemical_formula_structural   Cu4NiC
_chemical_formula_sum   'Cu24 Ni6 C6'
_cell_volume   543.96502317
_cell_formula_units_Z   6
loop_
 _symmetry_equiv_pos_site_id
 _symmetry_equiv_pos_as_xyz
  1  'x, y, z'
loop_
 _atom_site_type_symbol
 _atom_site_label
 _atom_site_symmetry_multiplicity
 _atom_site_fract_x
 _atom_site_fract_y
 _atom_site_fract_z
 _atom_site_occupancy
  C  C0  1  0.00000000  0.00000000  0.00000000  1
  C  C1  1  0.50000000  0.50000000  0.50000000  1
  C  C2  1  0.33330300  0.33330300  0.33330300  1
  C  C3  1  0.16669700  0.16669700  0.16669700  1
  C  C4  1  0.66669700  0.66669700  0.66669700  1
  C  C5  1  0.83330300  0.83330300  0.83330300  1
  Ni  Ni6  1  0.75000000  0.08429100  0.41570900  1
  Ni  Ni7  1  0.91570900  0.58429100  0.25000000  1
  Ni  Ni8  1  0.58429100  0.25000000  0.91570900  1
  Ni  Ni9  1  0.41570900  0.75000000  0.08429100  1
  Ni  Ni10  1  0.08429100  0.41570900  0.75000000  1
  Ni  Ni11  1  0.25000000  0.91570900  0.58429100  1
  Cu  Cu12  1  0.89536500  0.09498800  0.24648900  1
  Cu  Cu13  1  0.75351100  0.10463500  0.90501200  1
  Cu  Cu14  1  0.94029600  0.44852500  0.68529800  1
  Cu  Cu15  1  0.05147500  0.55970400  0.81470200  1
  Cu  Cu16  1  0.60463500  0.25351100  0.40501200  1
  Cu  Cu17  1  0.74648900  0.59498800  0.39536500  1
  Cu  Cu18  1  0.90501200  0.75351100  0.10463500  1
  Cu  Cu19  1  0.18529800  0.94852500  0.44029600  1
  Cu  Cu20  1  0.55147500  0.31470200  0.05970400  1
  Cu  Cu21  1  0.31470200  0.05970400  0.55147500  1
  Cu  Cu22  1  0.44029600  0.18529800  0.94852500  1
  Cu  Cu23  1  0.59498800  0.39536500  0.74648900  1
  Cu  Cu24  1  0.40501200  0.60463500  0.25351100  1
  Cu  Cu25  1  0.68529800  0.94029600  0.44852500  1
  Cu  Cu26  1  0.55970400  0.81470200  0.05147500  1
  Cu  Cu27  1  0.81470200  0.05147500  0.55970400  1
  Cu  Cu28  1  0.44852500  0.68529800  0.94029600  1
  Cu  Cu29  1  0.09498800  0.24648900  0.89536500  1
  Cu  Cu30  1  0.25351100  0.40501200  0.60463500  1
  Cu  Cu31  1  0.39536500  0.74648900  0.59498800  1
  Cu  Cu32  1  0.05970400  0.55147500  0.31470200  1
  Cu  Cu33  1  0.94852500  0.44029600  0.18529800  1
  Cu  Cu34  1  0.24648900  0.89536500  0.09498800  1
  Cu  Cu35  1  0.10463500  0.90501200  0.75351100  1
