# generated using pymatgen
data_CuNi2C
_symmetry_space_group_name_H-M   'P 1'
_cell_length_a   12.52125900
_cell_length_b   5.45074500
_cell_length_c   8.68607857
_cell_angle_alpha   58.25052349
_cell_angle_beta   90.00000000
_cell_angle_gamma   90.00000000
_symmetry_Int_Tables_number   1
_chemical_formula_structural   CuNi2C
_chemical_formula_sum   'Cu8 Ni16 C8'
_cell_volume   504.11419356
_cell_formula_units_Z   8
loop_
 _symmetry_equiv_pos_site_id
 _symmetry_equiv_pos_as_xyz
  1  'x, y, z'
loop_
 _atom_site_type_symbol
 _atom_site_label
 _atom_site_symmetry_multiplicity
 _atom_site_fract_x
 _atom_site_fract_y
 _atom_site_fract_z
 _atom_site_occupancy
  C  C0  1  0.35214800  0.19305700  0.19576600  1
  C  C1  1  0.11823800  0.51182700  0.23757500  1
  C  C2  1  0.61823800  0.48817300  0.26242500  1
  C  C3  1  0.85214800  0.80694300  0.30423400  1
  C  C4  1  0.14785200  0.19305700  0.69576600  1
  C  C5  1  0.38176200  0.51182700  0.73757500  1
  C  C6  1  0.88176200  0.48817300  0.76242500  1
  C  C7  1  0.64785200  0.80694300  0.80423400  1
  Ni  Ni8  1  0.62398500  0.54294200  0.03573000  1
  Ni  Ni9  1  0.03870400  0.27958400  0.23842400  1
  Ni  Ni10  1  0.80647800  0.07486100  0.31449000  1
  Ni  Ni11  1  0.24829300  0.35203800  0.25242700  1
  Ni  Ni12  1  0.74829300  0.64796200  0.24757300  1
  Ni  Ni13  1  0.30647800  0.92513900  0.18551000  1
  Ni  Ni14  1  0.53870400  0.72041600  0.26157600  1
  Ni  Ni15  1  0.12398500  0.45705800  0.46427000  1
  Ni  Ni16  1  0.87601500  0.54294200  0.53573000  1
  Ni  Ni17  1  0.46129600  0.27958400  0.73842400  1
  Ni  Ni18  1  0.69352200  0.07486100  0.81449000  1
  Ni  Ni19  1  0.25170700  0.35203800  0.75242700  1
  Ni  Ni20  1  0.75170700  0.64796200  0.74757300  1
  Ni  Ni21  1  0.19352200  0.92513900  0.68551000  1
  Ni  Ni22  1  0.96129600  0.72041600  0.76157600  1
  Ni  Ni23  1  0.37601500  0.45705800  0.96427000  1
  Cu  Cu24  1  0.13697300  0.81780800  0.00585400  1
  Cu  Cu25  1  0.48811700  0.21670600  0.28156800  1
  Cu  Cu26  1  0.98811700  0.78329400  0.21843200  1
  Cu  Cu27  1  0.63697300  0.18219200  0.49414600  1
  Cu  Cu28  1  0.36302700  0.81780800  0.50585400  1
  Cu  Cu29  1  0.01188300  0.21670600  0.78156800  1
  Cu  Cu30  1  0.51188300  0.78329400  0.71843200  1
  Cu  Cu31  1  0.86302700  0.18219200  0.99414600  1
