# generated using pymatgen
data_Cu2Ni3C19
_symmetry_space_group_name_H-M   'P 1'
_cell_length_a   5.86192618
_cell_length_b   5.86192618
_cell_length_c   8.90693462
_cell_angle_alpha   89.84127869
_cell_angle_beta   89.84127869
_cell_angle_gamma   60.11734250
_symmetry_Int_Tables_number   1
_chemical_formula_structural   Cu2Ni3C19
_chemical_formula_sum   'Cu2 Ni3 C19'
_cell_volume   265.36868179
_cell_formula_units_Z   1
loop_
 _symmetry_equiv_pos_site_id
 _symmetry_equiv_pos_as_xyz
  1  'x, y, z'
loop_
 _atom_site_type_symbol
 _atom_site_label
 _atom_site_symmetry_multiplicity
 _atom_site_fract_x
 _atom_site_fract_y
 _atom_site_fract_z
 _atom_site_occupancy
  Ni  Ni0  1  0.83126100  0.32964400  0.20983100  1
  Ni  Ni1  1  0.32964400  0.83126100  0.20983100  1
  Ni  Ni2  1  0.15937500  0.15937500  0.70747500  1
  C  C3  1  0.82843500  0.82843500  0.20979900  1
  C  C4  1  0.65957200  0.16980100  0.71023600  1
  C  C5  1  0.16980100  0.65957200  0.71023600  1
  Cu  Cu6  1  0.67174200  0.67174200  0.48764400  1
  Cu  Cu7  1  0.33387200  0.33387200  0.98518900  1
  C  C8  1  0.83261600  0.33942700  0.60221200  1
  C  C9  1  0.52623000  0.52623000  0.34392900  1
  C  C10  1  0.66778300  0.66778300  0.09798100  1
  C  C11  1  0.99568400  0.99568400  0.31520100  1
  C  C12  1  0.99561900  0.99561900  0.81572600  1
  C  C13  1  0.33942700  0.83261600  0.60221200  1
  C  C14  1  0.95518400  0.52915800  0.33982200  1
  C  C15  1  0.52915800  0.95518400  0.33982200  1
  C  C16  1  0.17098600  0.17098600  0.10490000  1
  C  C17  1  0.82851100  0.82851100  0.60396000  1
  C  C18  1  0.48041800  0.05007400  0.84097700  1
  C  C19  1  0.05007400  0.48041800  0.84097700  1
  C  C20  1  0.33668500  0.33668500  0.60045600  1
  C  C21  1  0.65589700  0.17197000  0.10124300  1
  C  C22  1  0.47988800  0.47988800  0.83483300  1
  C  C23  1  0.17197000  0.65589700  0.10124300  1
