# generated using pymatgen
data_Cu4NiC3
_symmetry_space_group_name_H-M   'P 1'
_cell_length_a   5.05213800
_cell_length_b   6.90131300
_cell_length_c   10.71298387
_cell_angle_alpha   81.20749440
_cell_angle_beta   90.00000000
_cell_angle_gamma   90.00000000
_symmetry_Int_Tables_number   1
_chemical_formula_structural   Cu4NiC3
_chemical_formula_sum   'Cu16 Ni4 C12'
_cell_volume   369.13352806
_cell_formula_units_Z   4
loop_
 _symmetry_equiv_pos_site_id
 _symmetry_equiv_pos_as_xyz
  1  'x, y, z'
loop_
 _atom_site_type_symbol
 _atom_site_label
 _atom_site_symmetry_multiplicity
 _atom_site_fract_x
 _atom_site_fract_y
 _atom_site_fract_z
 _atom_site_occupancy
  C  C0  1  0.66098200  0.88351200  0.79123300  1
  C  C1  1  0.83901800  0.88351200  0.29123300  1
  C  C2  1  0.82408300  0.77619600  0.56767700  1
  C  C3  1  0.67591700  0.77619600  0.06767700  1
  C  C4  1  0.32408300  0.22380400  0.93232300  1
  C  C5  1  0.17591700  0.22380400  0.43232300  1
  C  C6  1  0.16098200  0.11648800  0.70876700  1
  C  C7  1  0.33901800  0.11648800  0.20876700  1
  C  C8  1  0.83774200  0.46254200  0.82173500  1
  C  C9  1  0.33774200  0.53745800  0.67826500  1
  C  C10  1  0.66225800  0.46254200  0.32173500  1
  C  C11  1  0.16225800  0.53745800  0.17826500  1
  Ni  Ni12  1  0.17394700  0.81594400  0.93910100  1
  Ni  Ni13  1  0.32605300  0.81594400  0.43910100  1
  Ni  Ni14  1  0.67394700  0.18405600  0.56089900  1
  Ni  Ni15  1  0.82605300  0.18405600  0.06089900  1
  Cu  Cu16  1  0.30785400  0.94037300  0.85952400  1
  Cu  Cu17  1  0.19214600  0.94037300  0.35952400  1
  Cu  Cu18  1  0.92365400  0.79496300  0.92740200  1
  Cu  Cu19  1  0.57634600  0.79496300  0.42740200  1
  Cu  Cu20  1  0.19442400  0.71412000  0.53183100  1
  Cu  Cu21  1  0.65497100  0.64649200  0.71581600  1
  Cu  Cu22  1  0.30557600  0.71412000  0.03183100  1
  Cu  Cu23  1  0.84502900  0.64649200  0.21581600  1
  Cu  Cu24  1  0.15497100  0.35350800  0.78418400  1
  Cu  Cu25  1  0.69442400  0.28588000  0.96816900  1
  Cu  Cu26  1  0.34502900  0.35350800  0.28418400  1
  Cu  Cu27  1  0.80557600  0.28588000  0.46816900  1
  Cu  Cu28  1  0.42365400  0.20503700  0.57259800  1
  Cu  Cu29  1  0.07634600  0.20503700  0.07259800  1
  Cu  Cu30  1  0.80785400  0.05962700  0.64047600  1
  Cu  Cu31  1  0.69214600  0.05962700  0.14047600  1
