# generated using pymatgen
data_Cu4NiC22
_symmetry_space_group_name_H-M   'P 1'
_cell_length_a   9.92402030
_cell_length_b   9.87943034
_cell_length_c   9.70842382
_cell_angle_alpha   60.87333033
_cell_angle_beta   60.41460308
_cell_angle_gamma   58.71206659
_symmetry_Int_Tables_number   1
_chemical_formula_structural   Cu4NiC22
_chemical_formula_sum   'Cu8 Ni2 C44'
_cell_volume   672.53315475
_cell_formula_units_Z   2
loop_
 _symmetry_equiv_pos_site_id
 _symmetry_equiv_pos_as_xyz
  1  'x, y, z'
loop_
 _atom_site_type_symbol
 _atom_site_label
 _atom_site_symmetry_multiplicity
 _atom_site_fract_x
 _atom_site_fract_y
 _atom_site_fract_z
 _atom_site_occupancy
  C  C0  1  0.95984500  0.54015500  0.95984500  1
  C  C1  1  0.96010100  0.53989900  0.53989900  1
  C  C2  1  0.71010100  0.28989900  0.28989900  1
  C  C3  1  0.70984500  0.29015500  0.70984500  1
  C  C4  1  0.54015500  0.95984500  0.54015500  1
  C  C5  1  0.53989900  0.96010100  0.96010100  1
  C  C6  1  0.28989900  0.71010100  0.71010100  1
  C  C7  1  0.29015500  0.70984500  0.29015500  1
  C  C8  1  0.12500000  0.62500000  0.12500000  1
  C  C9  1  0.62500000  0.12500000  0.12500000  1
  C  C10  1  0.12500000  0.12500000  0.12500000  1
  C  C11  1  0.12500000  0.12500000  0.62500000  1
  Ni  Ni12  1  0.50000000  0.50000000  0.50000000  1
  Ni  Ni13  1  0.75000000  0.75000000  0.75000000  1
  Cu  Cu14  1  0.90519800  0.26388900  0.91700300  1
  Cu  Cu15  1  0.98611100  0.34480200  0.33608900  1
  Cu  Cu16  1  0.91700300  0.91391100  0.90519800  1
  Cu  Cu17  1  0.91391100  0.91700300  0.26388900  1
  Cu  Cu18  1  0.33608900  0.33299700  0.98611100  1
  Cu  Cu19  1  0.33299700  0.33608900  0.34480200  1
  Cu  Cu20  1  0.26388900  0.90519800  0.91391100  1
  Cu  Cu21  1  0.34480200  0.98611100  0.33299700  1
  C  C22  1  0.01805200  0.26946100  0.94299000  1
  C  C23  1  0.56141400  0.56172800  0.30677300  1
  C  C24  1  0.76565600  0.25987600  0.03417700  1
  C  C25  1  0.99012400  0.48434400  0.30970900  1
  C  C26  1  0.03417700  0.94029100  0.76565600  1
  C  C27  1  0.98045800  0.31990600  0.21914200  1
  C  C28  1  0.30677300  0.57008400  0.56141400  1
  C  C29  1  0.56172800  0.56141400  0.57008400  1
  C  C30  1  0.48049400  0.21914200  0.31990600  1
  C  C31  1  0.94029100  0.03417700  0.25987600  1
  C  C32  1  0.98053900  0.23194800  0.48050300  1
  C  C33  1  0.57008400  0.30677300  0.56172800  1
  C  C34  1  0.94299000  0.76949700  0.01805200  1
  C  C35  1  0.76949700  0.94299000  0.26946100  1
  C  C36  1  0.93009400  0.26954200  0.76950600  1
  C  C37  1  0.21914200  0.48049400  0.98045800  1
  C  C38  1  0.03085800  0.76950600  0.26954200  1
  C  C39  1  0.31990600  0.98045800  0.48049400  1
  C  C40  1  0.48050300  0.30701000  0.98053900  1
  C  C41  1  0.30701000  0.48050300  0.23194800  1
  C  C42  1  0.67991600  0.94322700  0.68827200  1
  C  C43  1  0.26946100  0.01805200  0.76949700  1
  C  C44  1  0.30970900  0.21582300  0.99012400  1
  C  C45  1  0.76950600  0.03085800  0.93009400  1
  C  C46  1  0.68827200  0.68858600  0.67991600  1
  C  C47  1  0.94322700  0.67991600  0.68858600  1
  C  C48  1  0.26954200  0.93009400  0.03085800  1
  C  C49  1  0.21582300  0.30970900  0.48434400  1
  C  C50  1  0.25987600  0.76565600  0.94029100  1
  C  C51  1  0.48434400  0.99012400  0.21582300  1
  C  C52  1  0.68858600  0.68827200  0.94322700  1
  C  C53  1  0.23194800  0.98053900  0.30701000  1
