# generated using pymatgen
data_Cu(NiC6)4
_symmetry_space_group_name_H-M   'P 1'
_cell_length_a   9.96695434
_cell_length_b   9.96695434
_cell_length_c   9.96695434
_cell_angle_alpha   60.00000000
_cell_angle_beta   60.00000000
_cell_angle_gamma   60.00000000
_symmetry_Int_Tables_number   1
_chemical_formula_structural   Cu(NiC6)4
_chemical_formula_sum   'Cu2 Ni8 C48'
_cell_volume   700.11987726
_cell_formula_units_Z   2
loop_
 _symmetry_equiv_pos_site_id
 _symmetry_equiv_pos_as_xyz
  1  'x, y, z'
loop_
 _atom_site_type_symbol
 _atom_site_label
 _atom_site_symmetry_multiplicity
 _atom_site_fract_x
 _atom_site_fract_y
 _atom_site_fract_z
 _atom_site_occupancy
  C  C0  1  0.28548100  0.28548100  0.71451900  1
  C  C1  1  0.96451900  0.53548100  0.53548100  1
  C  C2  1  0.28548100  0.71451900  0.28548100  1
  C  C3  1  0.71451900  0.28548100  0.71451900  1
  C  C4  1  0.53548100  0.96451900  0.96451900  1
  C  C5  1  0.53548100  0.53548100  0.96451900  1
  C  C6  1  0.71451900  0.28548100  0.28548100  1
  C  C7  1  0.71451900  0.71451900  0.28548100  1
  C  C8  1  0.53548100  0.96451900  0.53548100  1
  C  C9  1  0.96451900  0.53548100  0.96451900  1
  C  C10  1  0.28548100  0.71451900  0.71451900  1
  C  C11  1  0.96451900  0.96451900  0.53548100  1
  C  C12  1  0.62500000  0.12500000  0.12500000  1
  C  C13  1  0.12500000  0.12500000  0.12500000  1
  C  C14  1  0.12500000  0.12500000  0.62500000  1
  C  C15  1  0.12500000  0.62500000  0.12500000  1
  Ni  Ni16  1  0.28685800  0.90438100  0.90438100  1
  Ni  Ni17  1  0.90438100  0.28685800  0.90438100  1
  Ni  Ni18  1  0.90438100  0.90438100  0.90438100  1
  Ni  Ni19  1  0.90438100  0.90438100  0.28685800  1
  Ni  Ni20  1  0.34561900  0.34561900  0.96314200  1
  Ni  Ni21  1  0.34561900  0.34561900  0.34561900  1
  Ni  Ni22  1  0.34561900  0.96314200  0.34561900  1
  Ni  Ni23  1  0.96314200  0.34561900  0.34561900  1
  Cu  Cu24  1  0.50000000  0.50000000  0.50000000  1
  Cu  Cu25  1  0.75000000  0.75000000  0.75000000  1
  C  C26  1  0.22779100  0.48665500  0.32397900  1
  C  C27  1  0.96157500  0.32397900  0.48665500  1
  C  C28  1  0.28842500  0.02220900  0.92602100  1
  C  C29  1  0.02220900  0.28842400  0.76334500  1
  C  C30  1  0.28842400  0.76334500  0.02220900  1
  C  C31  1  0.56140500  0.56140500  0.31578500  1
  C  C32  1  0.92602100  0.02220900  0.76334500  1
  C  C33  1  0.56140500  0.56140500  0.56140500  1
  C  C34  1  0.56140500  0.31578500  0.56140500  1
  C  C35  1  0.92602100  0.28842500  0.02220900  1
  C  C36  1  0.76334500  0.28842400  0.92602100  1
  C  C37  1  0.31578500  0.56140500  0.56140500  1
  C  C38  1  0.02220900  0.92602100  0.28842400  1
  C  C39  1  0.76334500  0.92602100  0.02220900  1
  C  C40  1  0.92602100  0.76334500  0.28842400  1
  C  C41  1  0.48665500  0.22779100  0.96157600  1
  C  C42  1  0.76334500  0.02220900  0.28842400  1
  C  C43  1  0.32397900  0.48665500  0.96157600  1
  C  C44  1  0.48665500  0.32397900  0.22779100  1
  C  C45  1  0.22779100  0.32397900  0.96157500  1
  C  C46  1  0.93421500  0.68859500  0.68859500  1
  C  C47  1  0.48665500  0.96157600  0.32397900  1
  C  C48  1  0.32397900  0.96157600  0.22779100  1
  C  C49  1  0.68859500  0.68859500  0.68859500  1
  C  C50  1  0.68859500  0.93421500  0.68859500  1
  C  C51  1  0.32397900  0.22779100  0.48665500  1
  C  C52  1  0.68859500  0.68859500  0.93421500  1
  C  C53  1  0.96157600  0.48665500  0.22779100  1
  C  C54  1  0.22779100  0.96157600  0.48665500  1
  C  C55  1  0.96157600  0.22779100  0.32397900  1
  C  C56  1  0.28842400  0.92602100  0.76334500  1
  C  C57  1  0.02220900  0.76334500  0.92602100  1
