# generated using pymatgen
data_Cu(Ni3C4)2
_symmetry_space_group_name_H-M   'P 1'
_cell_length_a   7.43485429
_cell_length_b   7.43485429
_cell_length_c   7.22833228
_cell_angle_alpha   86.42731020
_cell_angle_beta   86.42731020
_cell_angle_gamma   136.14931074
_symmetry_Int_Tables_number   1
_chemical_formula_structural   Cu(Ni3C4)2
_chemical_formula_sum   'Cu2 Ni12 C16'
_cell_volume   272.92651669
_cell_formula_units_Z   2
loop_
 _symmetry_equiv_pos_site_id
 _symmetry_equiv_pos_as_xyz
  1  'x, y, z'
loop_
 _atom_site_type_symbol
 _atom_site_label
 _atom_site_symmetry_multiplicity
 _atom_site_fract_x
 _atom_site_fract_y
 _atom_site_fract_z
 _atom_site_occupancy
  C  C0  1  0.87032000  0.14828200  0.99883300  1
  C  C1  1  0.14828200  0.87032000  0.49883300  1
  Ni  Ni2  1  0.97949400  0.16626300  0.64048000  1
  Ni  Ni3  1  0.16626300  0.97949400  0.14048000  1
  Ni  Ni4  1  0.15368000  0.46454800  0.67637200  1
  Ni  Ni5  1  0.46454800  0.15368000  0.17637200  1
  Ni  Ni6  1  0.43120300  0.26016500  0.70430900  1
  Ni  Ni7  1  0.26016500  0.43120300  0.20430900  1
  Ni  Ni8  1  0.43209900  0.35232300  0.49913700  1
  Ni  Ni9  1  0.35232300  0.43209900  0.99913700  1
  Ni  Ni10  1  0.38941100  0.76487700  0.98519100  1
  Ni  Ni11  1  0.76487700  0.38941100  0.48519100  1
  Ni  Ni12  1  0.52226100  0.91650000  0.77628500  1
  Ni  Ni13  1  0.91650000  0.52226100  0.27628500  1
  Cu  Cu14  1  0.83560800  0.62211200  0.92295700  1
  Cu  Cu15  1  0.62211200  0.83560800  0.42295700  1
  C  C16  1  0.00390700  0.67315200  0.75412900  1
  C  C17  1  0.67315200  0.00390700  0.25412900  1
  C  C18  1  0.45665100  0.81602400  0.57111800  1
  C  C19  1  0.81602400  0.45665100  0.07111800  1
  C  C20  1  0.56914600  0.47245100  0.87678400  1
  C  C21  1  0.47245100  0.56914600  0.37678400  1
  C  C22  1  0.87136900  0.95772600  0.48643500  1
  C  C23  1  0.95772600  0.87136900  0.98643500  1
  C  C24  1  0.05699700  0.28594500  0.73813700  1
  C  C25  1  0.28594500  0.05699700  0.23813700  1
  C  C26  1  0.42306000  0.22447700  0.57250600  1
  C  C27  1  0.22447700  0.42306000  0.07250600  1
  C  C28  1  0.52981400  0.94333500  0.91162600  1
  C  C29  1  0.94333500  0.52981400  0.41162600  1
