# generated using pymatgen
data_CuNiC6
_symmetry_space_group_name_H-M   'P 1'
_cell_length_a   6.08416132
_cell_length_b   6.08416132
_cell_length_c   6.08416132
_cell_angle_alpha   122.09645028
_cell_angle_beta   117.26432554
_cell_angle_gamma   90.60492429
_symmetry_Int_Tables_number   1
_chemical_formula_structural   CuNiC6
_chemical_formula_sum   'Cu2 Ni2 C12'
_cell_volume   159.66128389
_cell_formula_units_Z   2
loop_
 _symmetry_equiv_pos_site_id
 _symmetry_equiv_pos_as_xyz
  1  'x, y, z'
loop_
 _atom_site_type_symbol
 _atom_site_label
 _atom_site_symmetry_multiplicity
 _atom_site_fract_x
 _atom_site_fract_y
 _atom_site_fract_z
 _atom_site_occupancy
  C  C0  1  0.50000000  0.00000000  0.00000000  1
  C  C1  1  0.00000000  0.50000000  0.50000000  1
  C  C2  1  0.50000000  0.50000000  0.50000000  1
  C  C3  1  0.50000000  0.50000000  0.00000000  1
  Ni  Ni4  1  0.00000000  0.00000000  0.50000000  1
  Ni  Ni5  1  0.00000000  0.50000000  0.00000000  1
  Cu  Cu6  1  0.50000000  0.00000000  0.50000000  1
  Cu  Cu7  1  0.00000000  0.00000000  0.00000000  1
  C  C8  1  0.74667200  0.74902000  0.99765200  1
  C  C9  1  0.23689900  0.74001400  0.00311400  1
  C  C10  1  0.25136800  0.74902000  0.50234800  1
  C  C11  1  0.23689900  0.23378500  0.49688600  1
  C  C12  1  0.76310100  0.76621500  0.50311400  1
  C  C13  1  0.74863200  0.25098000  0.49765200  1
  C  C14  1  0.76310100  0.25998600  0.99688600  1
  C  C15  1  0.25332800  0.25098000  0.00234800  1
