# generated using pymatgen
data_Cu2Ni5C17
_symmetry_space_group_name_H-M   'P 1'
_cell_length_a   5.24372875
_cell_length_b   5.24265594
_cell_length_c   9.92287081
_cell_angle_alpha   85.16759462
_cell_angle_beta   80.30238188
_cell_angle_gamma   59.99322406
_symmetry_Int_Tables_number   1
_chemical_formula_structural   Cu2Ni5C17
_chemical_formula_sum   'Cu2 Ni5 C17'
_cell_volume   232.85161720
_cell_formula_units_Z   1
loop_
 _symmetry_equiv_pos_site_id
 _symmetry_equiv_pos_as_xyz
  1  'x, y, z'
loop_
 _atom_site_type_symbol
 _atom_site_label
 _atom_site_symmetry_multiplicity
 _atom_site_fract_x
 _atom_site_fract_y
 _atom_site_fract_z
 _atom_site_occupancy
  C  C0  1  0.32100300  0.84339800  0.00917900  1
  C  C1  1  0.16745700  0.16938700  0.49669500  1
  C  C2  1  0.83559900  0.84339800  0.49082100  1
  C  C3  1  0.66315700  0.16938700  0.00330500  1
  C  C4  1  0.91587900  0.16824400  0.25000000  1
  Ni  Ni5  1  0.99401800  0.49508800  0.00546500  1
  Ni  Ni6  1  0.51089400  0.49508800  0.49453500  1
  Ni  Ni7  1  0.07284300  0.85431500  0.75000000  1
  Ni  Ni8  1  0.57671000  0.84658100  0.25000000  1
  Ni  Ni9  1  0.41312900  0.17374100  0.75000000  1
  Cu  Cu10  1  0.25034300  0.49931500  0.25000000  1
  Cu  Cu11  1  0.74358100  0.51283700  0.75000000  1
  C  C12  1  0.22522400  0.79268000  0.37759400  1
  C  C13  1  0.44675500  0.86156300  0.63705900  1
  C  C14  1  0.16587400  0.48741200  0.62413500  1
  C  C15  1  0.62654700  0.52648400  0.12787600  1
  C  C16  1  0.30271900  0.16603400  0.13747100  1
  C  C17  1  0.69168200  0.86156300  0.86294100  1
  C  C18  1  0.98209500  0.79268000  0.12240600  1
  C  C19  1  0.01741700  0.19362700  0.88436800  1
  C  C20  1  0.34671400  0.48741200  0.87586500  1
  C  C21  1  0.84696900  0.52648400  0.37212400  1
  C  C22  1  0.53124700  0.16603400  0.36252900  1
  C  C23  1  0.78895600  0.19362700  0.61563200  1
