# generated using pymatgen
data_Cu5Ni7C6
_symmetry_space_group_name_H-M   'P 1'
_cell_length_a   4.60132000
_cell_length_b   5.60530985
_cell_length_c   15.36608485
_cell_angle_alpha   89.86375884
_cell_angle_beta   89.87844001
_cell_angle_gamma   89.11486804
_symmetry_Int_Tables_number   1
_chemical_formula_structural   Cu5Ni7C6
_chemical_formula_sum   'Cu10 Ni14 C12'
_cell_volume   396.27008850
_cell_formula_units_Z   2
loop_
 _symmetry_equiv_pos_site_id
 _symmetry_equiv_pos_as_xyz
  1  'x, y, z'
loop_
 _atom_site_type_symbol
 _atom_site_label
 _atom_site_symmetry_multiplicity
 _atom_site_fract_x
 _atom_site_fract_y
 _atom_site_fract_z
 _atom_site_occupancy
  C  C0  1  0.01961300  0.83559800  0.58975900  1
  C  C1  1  0.99464600  0.15652200  0.75202100  1
  C  C2  1  0.02387700  0.82120900  0.92218500  1
  C  C3  1  0.01280900  0.83219700  0.25442700  1
  C  C4  1  0.00272000  0.14878100  0.42516800  1
  C  C5  1  0.05264900  0.15241600  0.08579000  1
  C  C6  1  0.49420700  0.65585800  0.41350400  1
  C  C7  1  0.48540400  0.64441200  0.07916300  1
  C  C8  1  0.50457800  0.65121700  0.74620200  1
  C  C9  1  0.51837700  0.37932500  0.91406300  1
  C  C10  1  0.49658100  0.36278300  0.57291200  1
  C  C11  1  0.48672900  0.35584300  0.24757800  1
  Ni  Ni12  1  0.21075600  0.88518900  0.69954900  1
  Ni  Ni13  1  0.21595500  0.89303900  0.36607300  1
  Ni  Ni14  1  0.23496100  0.88020300  0.03139100  1
  Ni  Ni15  1  0.22788300  0.11273700  0.53288200  1
  Ni  Ni16  1  0.22363800  0.10511000  0.19904200  1
  Ni  Ni17  1  0.28828800  0.60770000  0.85488100  1
  Ni  Ni18  1  0.27696900  0.60792900  0.52197200  1
  Ni  Ni19  1  0.27312100  0.59698000  0.18490600  1
  Ni  Ni20  1  0.29233700  0.39642500  0.02013000  1
  Ni  Ni21  1  0.71804300  0.61860600  0.97429500  1
  Ni  Ni22  1  0.73571000  0.39327000  0.80489800  1
  Ni  Ni23  1  0.72385800  0.60903900  0.63734000  1
  Ni  Ni24  1  0.71654900  0.38138200  0.46990300  1
  Ni  Ni25  1  0.71447400  0.61480600  0.30432100  1
  Cu  Cu26  1  0.25689100  0.12342800  0.86553400  1
  Cu  Cu27  1  0.25414300  0.37699500  0.68365200  1
  Cu  Cu28  1  0.23208800  0.39059500  0.35817500  1
  Cu  Cu29  1  0.75211300  0.38350700  0.13197900  1
  Cu  Cu30  1  0.77058700  0.90051600  0.81371900  1
  Cu  Cu31  1  0.77123200  0.87802800  0.48345900  1
  Cu  Cu32  1  0.73746600  0.12193300  0.63828300  1
  Cu  Cu33  1  0.78278100  0.13149800  0.97246300  1
  Cu  Cu34  1  0.75197600  0.87350600  0.13809400  1
  Cu  Cu35  1  0.74599400  0.12141600  0.31029000  1
