# generated using pymatgen
data_Cu12Ni3C2
_symmetry_space_group_name_H-M   'P 1'
_cell_length_a   8.87223072
_cell_length_b   8.87223072
_cell_length_c   8.87223044
_cell_angle_alpha   56.01897440
_cell_angle_beta   56.01897440
_cell_angle_gamma   56.01897306
_symmetry_Int_Tables_number   1
_chemical_formula_structural   Cu12Ni3C2
_chemical_formula_sum   'Cu24 Ni6 C4'
_cell_volume   448.29480654
_cell_formula_units_Z   2
loop_
 _symmetry_equiv_pos_site_id
 _symmetry_equiv_pos_as_xyz
  1  'x, y, z'
loop_
 _atom_site_type_symbol
 _atom_site_label
 _atom_site_symmetry_multiplicity
 _atom_site_fract_x
 _atom_site_fract_y
 _atom_site_fract_z
 _atom_site_occupancy
  C  C0  1  0.85264000  0.85264000  0.85264000  1
  C  C1  1  0.64478000  0.64478000  0.64478000  1
  C  C2  1  0.35608200  0.35608200  0.35608200  1
  C  C3  1  0.15002500  0.15002500  0.15002500  1
  Ni  Ni4  1  0.96156000  0.25525000  0.53280100  1
  Ni  Ni5  1  0.46076700  0.04316600  0.74733500  1
  Ni  Ni6  1  0.74733500  0.46076700  0.04316600  1
  Ni  Ni7  1  0.25525000  0.53280100  0.96156000  1
  Ni  Ni8  1  0.53280100  0.96156000  0.25525000  1
  Ni  Ni9  1  0.04316600  0.74733500  0.46076700  1
  Cu  Cu10  1  0.70280400  0.48247700  0.89195300  1
  Cu  Cu11  1  0.89195300  0.70280400  0.48247700  1
  Cu  Cu12  1  0.98682700  0.05446000  0.66632100  1
  Cu  Cu13  1  0.97825400  0.28665400  0.34041800  1
  Cu  Cu14  1  0.64731100  0.02734700  0.71889000  1
  Cu  Cu15  1  0.95230300  0.32273500  0.01846100  1
  Cu  Cu16  1  0.48247700  0.89195300  0.70280400  1
  Cu  Cu17  1  0.76481200  0.38879400  0.61330700  1
  Cu  Cu18  1  0.32273500  0.01846100  0.95230300  1
  Cu  Cu19  1  0.61855600  0.37033000  0.23935900  1
  Cu  Cu20  1  0.37033000  0.23935900  0.61855600  1
  Cu  Cu21  1  0.71889000  0.64731100  0.02734700  1
  Cu  Cu22  1  0.28665400  0.34041800  0.97825400  1
  Cu  Cu23  1  0.61330700  0.76481200  0.38879400  1
  Cu  Cu24  1  0.38879400  0.61330700  0.76481200  1
  Cu  Cu25  1  0.66632100  0.98682700  0.05446000  1
  Cu  Cu26  1  0.23935900  0.61855600  0.37033000  1
  Cu  Cu27  1  0.50464600  0.10763300  0.31095300  1
  Cu  Cu28  1  0.05446000  0.66632100  0.98682700  1
  Cu  Cu29  1  0.34041800  0.97825400  0.28665400  1
  Cu  Cu30  1  0.02734700  0.71889000  0.64731100  1
  Cu  Cu31  1  0.01846100  0.95230300  0.32273500  1
  Cu  Cu32  1  0.10763300  0.31095300  0.50464600  1
  Cu  Cu33  1  0.31095300  0.50464600  0.10763300  1
