# generated using pymatgen
data_Cu(NiC4)2
_symmetry_space_group_name_H-M   'P 1'
_cell_length_a   5.14696235
_cell_length_b   9.02117793
_cell_length_c   11.63515450
_cell_angle_alpha   67.19053222
_cell_angle_beta   102.77860642
_cell_angle_gamma   89.99992041
_symmetry_Int_Tables_number   1
_chemical_formula_structural   Cu(NiC4)2
_chemical_formula_sum   'Cu4 Ni8 C32'
_cell_volume   483.44373745
_cell_formula_units_Z   4
loop_
 _symmetry_equiv_pos_site_id
 _symmetry_equiv_pos_as_xyz
  1  'x, y, z'
loop_
 _atom_site_type_symbol
 _atom_site_label
 _atom_site_symmetry_multiplicity
 _atom_site_fract_x
 _atom_site_fract_y
 _atom_site_fract_z
 _atom_site_occupancy
  C  C0  1  0.46256200  0.87500000  0.75000100  1
  C  C1  1  0.96255900  0.37500000  0.75000100  1
  C  C2  1  0.03743900  0.12499300  0.24999900  1
  C  C3  1  0.53744000  0.62500800  0.25000000  1
  C  C4  1  0.46256200  0.37500000  0.75000100  1
  C  C5  1  0.96255900  0.87500000  0.75000100  1
  C  C6  1  0.03743900  0.62500800  0.24999900  1
  C  C7  1  0.53743900  0.12499300  0.25000000  1
  Ni  Ni8  1  0.24999900  0.91070400  0.50000000  1
  Ni  Ni9  1  0.74999800  0.41070500  0.50000100  1
  Ni  Ni10  1  0.99999700  0.33929500  0.99999800  1
  Ni  Ni11  1  0.49999900  0.83929600  0.99999900  1
  Ni  Ni12  1  0.99999600  0.66070700  0.99999800  1
  Ni  Ni13  1  0.49999800  0.16070500  0.00000000  1
  Ni  Ni14  1  0.24999900  0.58929500  0.50000100  1
  Ni  Ni15  1  0.74999800  0.08929300  0.50000200  1
  Cu  Cu16  1  0.50000100  0.50000100  0.99999800  1
  Cu  Cu17  1  0.25000200  0.24999900  0.50000200  1
  Cu  Cu18  1  0.00000500  0.00000000  0.99999900  1
  Cu  Cu19  1  0.75000400  0.74999700  0.50000300  1
  C  C20  1  0.65480400  0.19938000  0.60124000  1
  C  C21  1  0.15480900  0.69938000  0.60124000  1
  C  C22  1  0.19643700  0.44938000  0.10123800  1
  C  C23  1  0.69643900  0.94937000  0.10125800  1
  C  C24  1  0.30357000  0.05062000  0.89876100  1
  C  C25  1  0.80356500  0.55061900  0.89876100  1
  C  C26  1  0.84519900  0.30062000  0.39876100  1
  C  C27  1  0.34518100  0.80063000  0.39874100  1
  C  C28  1  0.23113900  0.12834300  0.10716100  1
  C  C29  1  0.73112800  0.62835800  0.10715100  1
  C  C30  1  0.26887200  0.37164400  0.89285400  1
  C  C31  1  0.76886600  0.87164400  0.89285100  1
  C  C32  1  0.37398200  0.12164300  0.39284800  1
  C  C33  1  0.87398200  0.62165800  0.39283800  1
  C  C34  1  0.12601600  0.01449600  0.60714700  1
  C  C35  1  0.62601400  0.51449500  0.60714900  1
  C  C36  1  0.26887000  0.73550300  0.89285300  1
  C  C37  1  0.76886400  0.23550500  0.89285100  1
  C  C38  1  0.37398000  0.48550900  0.39284800  1
  C  C39  1  0.87398100  0.98550400  0.39283800  1
  C  C40  1  0.12601500  0.37835800  0.60714700  1
  C  C41  1  0.62601200  0.87835700  0.60714900  1
  C  C42  1  0.23114500  0.76449700  0.10716200  1
  C  C43  1  0.73113300  0.26449200  0.10715200  1
