# generated using pymatgen
data_Cu5NiC3
_symmetry_space_group_name_H-M   'P 1'
_cell_length_a   5.63058679
_cell_length_b   5.63058679
_cell_length_c   7.39009911
_cell_angle_alpha   71.93250809
_cell_angle_beta   71.93250809
_cell_angle_gamma   71.58549833
_symmetry_Int_Tables_number   1
_chemical_formula_structural   Cu5NiC3
_chemical_formula_sum   'Cu10 Ni2 C6'
_cell_volume   205.40501683
_cell_formula_units_Z   2
loop_
 _symmetry_equiv_pos_site_id
 _symmetry_equiv_pos_as_xyz
  1  'x, y, z'
loop_
 _atom_site_type_symbol
 _atom_site_label
 _atom_site_symmetry_multiplicity
 _atom_site_fract_x
 _atom_site_fract_y
 _atom_site_fract_z
 _atom_site_occupancy
  C  C0  1  0.65832100  0.65832100  0.84119900  1
  C  C1  1  0.66885400  0.66885400  0.33462300  1
  C  C2  1  0.33114600  0.33114600  0.66537700  1
  C  C3  1  0.34167900  0.34167900  0.15880100  1
  C  C4  1  0.00000000  0.00000000  0.50000000  1
  C  C5  1  0.00000000  0.00000000  0.00000000  1
  Ni  Ni6  1  0.69941400  0.30058600  0.00000000  1
  Ni  Ni7  1  0.30058600  0.69941400  0.00000000  1
  Cu  Cu8  1  0.97527300  0.36450000  0.33070100  1
  Cu  Cu9  1  0.63550000  0.02472700  0.66929900  1
  Cu  Cu10  1  0.23405500  0.23405500  0.96196500  1
  Cu  Cu11  1  0.56271200  0.56271200  0.63140900  1
  Cu  Cu12  1  0.89963800  0.89963800  0.29966700  1
  Cu  Cu13  1  0.76594500  0.76594500  0.03803500  1
  Cu  Cu14  1  0.43728800  0.43728800  0.36859100  1
  Cu  Cu15  1  0.10036200  0.10036200  0.70033300  1
  Cu  Cu16  1  0.36450000  0.97527300  0.33070100  1
  Cu  Cu17  1  0.02472700  0.63550000  0.66929900  1
