# generated using pymatgen
data_Cu20NiC35
_symmetry_space_group_name_H-M   'P 1'
_cell_length_a   8.47291231
_cell_length_b   8.47291231
_cell_length_c   8.47713889
_cell_angle_alpha   89.62028683
_cell_angle_beta   89.62028683
_cell_angle_gamma   90.39309763
_symmetry_Int_Tables_number   1
_chemical_formula_structural   Cu20NiC35
_chemical_formula_sum   'Cu20 Ni1 C35'
_cell_volume   608.53462523
_cell_formula_units_Z   1
loop_
 _symmetry_equiv_pos_site_id
 _symmetry_equiv_pos_as_xyz
  1  'x, y, z'
loop_
 _atom_site_type_symbol
 _atom_site_label
 _atom_site_symmetry_multiplicity
 _atom_site_fract_x
 _atom_site_fract_y
 _atom_site_fract_z
 _atom_site_occupancy
  C  C0  1  0.12607700  0.62756300  0.87534800  1
  C  C1  1  0.62472000  0.62472000  0.37388100  1
  C  C2  1  0.62756300  0.12607700  0.87534800  1
  Ni  Ni3  1  0.00551500  0.00551500  0.99349000  1
  Cu  Cu4  1  0.00199400  0.50691400  0.49629500  1
  Cu  Cu5  1  0.12700900  0.12700900  0.37313000  1
  Cu  Cu6  1  0.12363900  0.87233400  0.63232600  1
  Cu  Cu7  1  0.13122600  0.37849100  0.12099600  1
  Cu  Cu8  1  0.24784300  0.74715100  0.25062500  1
  Cu  Cu9  1  0.24886500  0.24886500  0.76107300  1
  Cu  Cu10  1  0.37506400  0.62536000  0.62311700  1
  Cu  Cu11  1  0.37849100  0.13122600  0.12099600  1
  Cu  Cu12  1  0.37438000  0.87677700  0.87676600  1
  Cu  Cu13  1  0.38078300  0.38078300  0.37316600  1
  Cu  Cu14  1  0.50691400  0.00199400  0.49629500  1
  Cu  Cu15  1  0.50531100  0.50531100  0.99334800  1
  Cu  Cu16  1  0.62462100  0.87746000  0.12442600  1
  Cu  Cu17  1  0.62536000  0.37506400  0.62311700  1
  Cu  Cu18  1  0.74416200  0.74416200  0.75733900  1
  Cu  Cu19  1  0.74715100  0.24784300  0.25062500  1
  Cu  Cu20  1  0.87206900  0.87206900  0.37371700  1
  Cu  Cu21  1  0.87677700  0.37438000  0.87676600  1
  Cu  Cu22  1  0.87746000  0.62462100  0.12442600  1
  Cu  Cu23  1  0.87233400  0.12363900  0.63232600  1
  C  C24  1  0.11602500  0.88747000  0.38244700  1
  C  C25  1  0.11450400  0.61475000  0.12635000  1
  C  C26  1  0.11866100  0.11866100  0.61572900  1
  C  C27  1  0.13677100  0.63547300  0.62187700  1
  C  C28  1  0.11231700  0.37592600  0.88628800  1
  C  C29  1  0.12670000  0.36522200  0.36587300  1
  C  C30  1  0.14099600  0.87237800  0.85898600  1
  C  C31  1  0.14136600  0.14136600  0.13575100  1
  C  C32  1  0.37185200  0.87206800  0.62994400  1
  C  C33  1  0.36522200  0.12670000  0.36587300  1
  C  C34  1  0.37590700  0.63653000  0.86563000  1
  C  C35  1  0.37350100  0.62937500  0.38719300  1
  C  C36  1  0.36682300  0.36682300  0.12143200  1
  C  C37  1  0.37956000  0.88820800  0.11890800  1
  C  C38  1  0.38211600  0.38211600  0.63172400  1
  C  C39  1  0.37592600  0.11231700  0.88628800  1
  C  C40  1  0.61634000  0.61634000  0.62453600  1
  C  C41  1  0.61322900  0.87797000  0.88504300  1
  C  C42  1  0.62937500  0.37350100  0.38719300  1
  C  C43  1  0.63548600  0.87727500  0.36545700  1
  C  C44  1  0.61475000  0.11450400  0.12635000  1
  C  C45  1  0.63547300  0.13677100  0.62187700  1
  C  C46  1  0.63529100  0.63529100  0.12604800  1
  C  C47  1  0.63653000  0.37590700  0.86563000  1
  C  C48  1  0.87727500  0.63548600  0.36545700  1
  C  C49  1  0.87206800  0.37185200  0.62994400  1
  C  C50  1  0.86678300  0.86678300  0.13460100  1
  C  C51  1  0.88162600  0.88162600  0.61870000  1
  C  C52  1  0.87237800  0.14099600  0.85898600  1
  C  C53  1  0.87797000  0.61322900  0.88504300  1
  C  C54  1  0.88747000  0.11602500  0.38244700  1
  C  C55  1  0.88820800  0.37956000  0.11890800  1
