# generated using pymatgen
data_CuNi2C9
_symmetry_space_group_name_H-M   'P 1'
_cell_length_a   6.75498255
_cell_length_b   6.75498255
_cell_length_c   6.01210940
_cell_angle_alpha   76.91387307
_cell_angle_beta   76.91387307
_cell_angle_gamma   25.23176273
_symmetry_Int_Tables_number   1
_chemical_formula_structural   CuNi2C9
_chemical_formula_sum   'Cu1 Ni2 C9'
_cell_volume   113.75101176
_cell_formula_units_Z   1
loop_
 _symmetry_equiv_pos_site_id
 _symmetry_equiv_pos_as_xyz
  1  'x, y, z'
loop_
 _atom_site_type_symbol
 _atom_site_label
 _atom_site_symmetry_multiplicity
 _atom_site_fract_x
 _atom_site_fract_y
 _atom_site_fract_z
 _atom_site_occupancy
  C  C0  1  0.00000000  0.00000000  0.00000000  1
  C  C1  1  0.66327200  0.66327200  0.66823900  1
  C  C2  1  0.33672800  0.33672800  0.33176100  1
  Ni  Ni3  1  0.65534100  0.65534100  0.17922100  1
  Ni  Ni4  1  0.34465900  0.34465900  0.82077900  1
  Cu  Cu5  1  0.00000000  0.00000000  0.50000000  1
  C  C6  1  0.17770100  0.17770100  0.38509100  1
  C  C7  1  0.82841000  0.82841000  0.05823000  1
  C  C8  1  0.82229900  0.82229900  0.61490900  1
  C  C9  1  0.48828600  0.48828600  0.76826300  1
  C  C10  1  0.51171400  0.51171400  0.23173700  1
  C  C11  1  0.17159000  0.17159000  0.94177000  1
