# generated using pymatgen
data_CuNiC12
_symmetry_space_group_name_H-M   'P 1'
_cell_length_a   5.35379685
_cell_length_b   5.35379685
_cell_length_c   9.79593138
_cell_angle_alpha   88.61453325
_cell_angle_beta   88.61453325
_cell_angle_gamma   116.81658728
_symmetry_Int_Tables_number   1
_chemical_formula_structural   CuNiC12
_chemical_formula_sum   'Cu2 Ni2 C24'
_cell_volume   250.31846708
_cell_formula_units_Z   2
loop_
 _symmetry_equiv_pos_site_id
 _symmetry_equiv_pos_as_xyz
  1  'x, y, z'
loop_
 _atom_site_type_symbol
 _atom_site_label
 _atom_site_symmetry_multiplicity
 _atom_site_fract_x
 _atom_site_fract_y
 _atom_site_fract_z
 _atom_site_occupancy
  C  C0  1  0.68403500  0.06003600  0.07847700  1
  C  C1  1  0.61953500  0.93193500  0.58078100  1
  C  C2  1  0.31529200  0.37329100  0.57321000  1
  C  C3  1  0.38046500  0.06806500  0.41921900  1
  C  C4  1  0.37329100  0.31529200  0.07321000  1
  C  C5  1  0.31596500  0.93996400  0.92152300  1
  C  C6  1  0.06806500  0.38046500  0.91921900  1
  C  C7  1  0.93193500  0.61953500  0.08078100  1
  C  C8  1  0.06003600  0.68403500  0.57847700  1
  C  C9  1  0.93996400  0.31596500  0.42152300  1
  C  C10  1  0.68470800  0.62670900  0.42679000  1
  C  C11  1  0.62670900  0.68470800  0.92679000  1
  Ni  Ni12  1  0.00274700  0.99725300  0.25000000  1
  Ni  Ni13  1  0.99725300  0.00274700  0.75000000  1
  Cu  Cu14  1  0.66066500  0.33933500  0.75000000  1
  Cu  Cu15  1  0.33933500  0.66066500  0.25000000  1
  C  C16  1  0.66645000  0.95828300  0.36170600  1
  C  C17  1  0.71843000  0.06370200  0.86683000  1
  C  C18  1  0.31511000  0.37489100  0.37252200  1
  C  C19  1  0.28157000  0.93629800  0.13317000  1
  C  C20  1  0.33355000  0.04171700  0.63829400  1
  C  C21  1  0.37489100  0.31511000  0.87252200  1
  C  C22  1  0.95828300  0.66645000  0.86170600  1
  C  C23  1  0.93629800  0.28157000  0.63317000  1
  C  C24  1  0.06370200  0.71843000  0.36683000  1
  C  C25  1  0.04171700  0.33355000  0.13829400  1
  C  C26  1  0.62510900  0.68489000  0.12747800  1
  C  C27  1  0.68489000  0.62510900  0.62747800  1
