# generated using pymatgen
data_Cu8NiC78
_symmetry_space_group_name_H-M   'P 1'
_cell_length_a   10.69482108
_cell_length_b   10.69482108
_cell_length_c   17.02304128
_cell_angle_alpha   84.83958466
_cell_angle_beta   84.83958466
_cell_angle_gamma   80.82636398
_symmetry_Int_Tables_number   1
_chemical_formula_structural   Cu8NiC78
_chemical_formula_sum   'Cu16 Ni2 C156'
_cell_volume   1908.71879209
_cell_formula_units_Z   2
loop_
 _symmetry_equiv_pos_site_id
 _symmetry_equiv_pos_as_xyz
  1  'x, y, z'
loop_
 _atom_site_type_symbol
 _atom_site_label
 _atom_site_symmetry_multiplicity
 _atom_site_fract_x
 _atom_site_fract_y
 _atom_site_fract_z
 _atom_site_occupancy
  Ni  Ni0  1  0.00000000  0.50000000  0.00000000  1
  Ni  Ni1  1  0.50000000  0.00000000  0.50000000  1
  Cu  Cu2  1  0.58820500  0.91053100  0.92220700  1
  Cu  Cu3  1  0.08946900  0.41179500  0.57779300  1
  Cu  Cu4  1  0.41179500  0.08946900  0.07779300  1
  Cu  Cu5  1  0.91053100  0.58820500  0.42220700  1
  Cu  Cu6  1  0.46000500  0.74655800  0.06986400  1
  Cu  Cu7  1  0.25344200  0.53999500  0.43013600  1
  Cu  Cu8  1  0.53999500  0.25344200  0.93013600  1
  Cu  Cu9  1  0.74655800  0.46000500  0.56986400  1
  Cu  Cu10  1  0.75395500  0.03488900  0.03680500  1
  Cu  Cu11  1  0.96511100  0.24604500  0.46319500  1
  Cu  Cu12  1  0.24604500  0.96511100  0.96319500  1
  Cu  Cu13  1  0.03488900  0.75395500  0.53680500  1
  Cu  Cu14  1  0.62347400  0.87459300  0.18971300  1
  Cu  Cu15  1  0.12540700  0.37652600  0.31028700  1
  Cu  Cu16  1  0.37652600  0.12540700  0.81028700  1
  Cu  Cu17  1  0.87459300  0.62347400  0.68971300  1
  C  C18  1  0.88492600  0.64212900  0.12766100  1
  C  C19  1  0.35787100  0.11507400  0.37233900  1
  C  C20  1  0.11507400  0.35787100  0.87233900  1
  C  C21  1  0.64212900  0.88492600  0.62766100  1
  C  C22  1  0.00317500  0.54035200  0.15209100  1
  C  C23  1  0.45964800  0.99682500  0.34790900  1
  C  C24  1  0.99682500  0.45964800  0.84790900  1
  C  C25  1  0.54035200  0.00317500  0.65209100  1
  C  C26  1  0.10870100  0.29839200  0.08307800  1
  C  C27  1  0.70160800  0.89129900  0.41692200  1
  C  C28  1  0.89129900  0.70160800  0.91692200  1
  C  C29  1  0.29839200  0.10870100  0.58307800  1
  C  C30  1  0.01308400  0.24877800  0.03305600  1
  C  C31  1  0.75122200  0.98691600  0.46694400  1
  C  C32  1  0.98691600  0.75122200  0.96694400  1
  C  C33  1  0.24877800  0.01308400  0.53305600  1
  C  C34  1  0.26538000  0.44791900  0.98962000  1
  C  C35  1  0.55208100  0.73462000  0.51038000  1
  C  C36  1  0.73462000  0.55208100  0.01038000  1
  C  C37  1  0.44791900  0.26538000  0.48962000  1
  C  C38  1  0.22594600  0.56811100  0.03918200  1
  C  C39  1  0.43188900  0.77405400  0.46081800  1
  C  C40  1  0.77405400  0.43188900  0.96081800  1
  C  C41  1  0.56811100  0.22594600  0.53918200  1
  C  C42  1  0.82832300  0.35466700  0.22484500  1
  C  C43  1  0.64533300  0.17167700  0.27515500  1
  C  C44  1  0.17167700  0.64533300  0.77515500  1
  C  C45  1  0.35466700  0.82832300  0.72484500  1
  C  C46  1  0.73618100  0.44564000  0.15022500  1
  C  C47  1  0.55436000  0.26381900  0.34977500  1
  C  C48  1  0.26381900  0.55436000  0.84977500  1
  C  C49  1  0.44564000  0.73618100  0.65022500  1
  C  C50  1  0.74749100  0.27677800  0.15940300  1
  C  C51  1  0.72322200  0.25250900  0.34059700  1
  C  C52  1  0.25250900  0.72322200  0.84059700  1
  C  C53  1  0.27677800  0.74749100  0.65940300  1
  C  C54  1  0.42830700  0.38687000  0.24896200  1
  C  C55  1  0.61313000  0.57169300  0.25103800  1
  C  C56  1  0.57169300  0.61313000  0.75103800  1
  C  C57  1  0.38687000  0.42830700  0.74896200  1
  C  C58  1  0.51850900  0.29188200  0.17552200  1
  C  C59  1  0.70811800  0.48149100  0.32447800  1
  C  C60  1  0.48149100  0.70811800  0.82447800  1
  C  C61  1  0.29188200  0.51850900  0.67552200  1
  C  C62  1  0.50613200  0.46134600  0.16303400  1
  C  C63  1  0.53865400  0.49386800  0.33696600  1
  C  C64  1  0.49386800  0.53865400  0.83696600  1
  C  C65  1  0.46134600  0.50613200  0.66303400  1
  C  C66  1  0.81420600  0.14841800  0.66435600  1
  C  C67  1  0.85158200  0.18579400  0.83564400  1
  C  C68  1  0.18579400  0.85158200  0.33564400  1
  C  C69  1  0.14841800  0.81420600  0.16435600  1
  C  C70  1  0.73964400  0.07461400  0.75144100  1
  C  C71  1  0.92538600  0.26035600  0.74855900  1
  C  C72  1  0.26035600  0.92538600  0.24855900  1
  C  C73  1  0.07461400  0.73964400  0.25144100  1
  C  C74  1  0.82765400  0.97860900  0.67751600  1
  C  C75  1  0.02139100  0.17234600  0.82248400  1
  C  C76  1  0.17234600  0.02139100  0.32248400  1
  C  C77  1  0.97860900  0.82765400  0.17751600  1
  C  C78  1  0.03846900  0.94364000  0.83927700  1
  C  C79  1  0.05636000  0.96153100  0.66072300  1
  C  C80  1  0.96153100  0.05636000  0.16072300  1
  C  C81  1  0.94364000  0.03846900  0.33927700  1
  C  C82  1  0.95645400  0.86102900  0.77744400  1
  C  C83  1  0.13897100  0.04354600  0.72255600  1
  C  C84  1  0.04354600  0.13897100  0.22255600  1
  C  C85  1  0.86102900  0.95645400  0.27744400  1
  C  C86  1  0.86890700  0.95637200  0.85171400  1
  C  C87  1  0.04362800  0.13109300  0.64828600  1
  C  C88  1  0.13109300  0.04362800  0.14828600  1
  C  C89  1  0.95637200  0.86890700  0.35171400  1
  C  C90  1  0.74378100  0.36124600  0.19195200  1
  C  C91  1  0.63875400  0.25621900  0.30804800  1
  C  C92  1  0.25621900  0.63875400  0.80804800  1
  C  C93  1  0.36124600  0.74378100  0.69195200  1
  C  C94  1  0.51142500  0.37868100  0.20620500  1
  C  C95  1  0.62131900  0.48857500  0.29379500  1
  C  C96  1  0.48857500  0.62131900  0.79379500  1
  C  C97  1  0.37868100  0.51142500  0.70620500  1
  C  C98  1  0.82148300  0.06592400  0.70765400  1
  C  C99  1  0.93407600  0.17851700  0.79234600  1
  C  C100  1  0.17851700  0.93407600  0.29234600  1
  C  C101  1  0.06592400  0.82148300  0.20765400  1
  C  C102  1  0.95189600  0.94662400  0.80897200  1
  C  C103  1  0.05337600  0.04810400  0.69102800  1
  C  C104  1  0.04810400  0.05337600  0.19102800  1
  C  C105  1  0.94662400  0.95189600  0.30897200  1
  C  C106  1  0.62864600  0.37135400  0.25000000  1
  C  C107  1  0.37135400  0.62864600  0.75000000  1
  C  C108  1  0.94001500  0.05998500  0.75000000  1
  C  C109  1  0.05998500  0.94001500  0.25000000  1
  C  C110  1  0.96556500  0.59271400  0.10735000  1
  C  C111  1  0.40728600  0.03443500  0.39265000  1
  C  C112  1  0.03443500  0.40728600  0.89265000  1
  C  C113  1  0.59271400  0.96556500  0.60735000  1
  C  C114  1  0.32869000  0.66832000  0.08608700  1
  C  C115  1  0.33168000  0.67131000  0.41391300  1
  C  C116  1  0.67131000  0.33168000  0.91391300  1
  C  C117  1  0.66832000  0.32869000  0.58608700  1
  C  C118  1  0.02316100  0.31982400  0.06377200  1
  C  C119  1  0.68017600  0.97683900  0.43622800  1
  C  C120  1  0.97683900  0.68017600  0.93622800  1
  C  C121  1  0.31982400  0.02316100  0.56377200  1
  C  C122  1  0.53880900  0.95958200  0.82516800  1
  C  C123  1  0.04041800  0.46119100  0.67483200  1
  C  C124  1  0.46119100  0.04041800  0.17483200  1
  C  C125  1  0.95958200  0.53880900  0.32516800  1
  C  C126  1  0.19186700  0.50814200  0.00935600  1
  C  C127  1  0.49185800  0.80813300  0.49064400  1
  C  C128  1  0.80813300  0.49185800  0.99064400  1
  C  C129  1  0.50814200  0.19186700  0.50935600  1
  C  C130  1  0.87246800  0.90742900  0.02093400  1
  C  C131  1  0.09257100  0.12753200  0.47906600  1
  C  C132  1  0.12753200  0.09257100  0.97906600  1
  C  C133  1  0.90742900  0.87246800  0.52093400  1
  C  C134  1  0.60597900  0.88895800  0.29083400  1
  C  C135  1  0.11104200  0.39402100  0.20916600  1
  C  C136  1  0.39402100  0.11104200  0.70916600  1
  C  C137  1  0.88895800  0.60597900  0.79083400  1
  C  C138  1  0.83070400  0.16628200  0.03080000  1
  C  C139  1  0.83371800  0.16929600  0.46920000  1
  C  C140  1  0.16929600  0.83371800  0.96920000  1
  C  C141  1  0.16628200  0.83070400  0.53080000  1
  C  C142  1  0.59023200  0.62851200  0.05488400  1
  C  C143  1  0.37148800  0.40976800  0.44511600  1
  C  C144  1  0.40976800  0.37148800  0.94511600  1
  C  C145  1  0.62851200  0.59023200  0.55488400  1
  C  C146  1  0.41870400  0.08120200  0.95171400  1
  C  C147  1  0.91879800  0.58129600  0.54828600  1
  C  C148  1  0.58129600  0.91879800  0.04828600  1
  C  C149  1  0.08120200  0.41870400  0.45171400  1
  C  C150  1  0.71571100  0.01337600  0.14991700  1
  C  C151  1  0.98662400  0.28428900  0.35008300  1
  C  C152  1  0.28428900  0.98662400  0.85008300  1
  C  C153  1  0.01337600  0.71571100  0.64991700  1
  C  C154  1  0.68246700  0.05374100  0.93010300  1
  C  C155  1  0.94625900  0.31753300  0.56989700  1
  C  C156  1  0.31753300  0.94625900  0.06989700  1
  C  C157  1  0.05374100  0.68246700  0.43010300  1
  C  C158  1  0.44617000  0.81653100  0.95769900  1
  C  C159  1  0.18346900  0.55383000  0.54230100  1
  C  C160  1  0.55383000  0.18346900  0.04230100  1
  C  C161  1  0.81653100  0.44617000  0.45769900  1
  C  C162  1  0.74746100  0.74928400  0.17359000  1
  C  C163  1  0.25071600  0.25253900  0.32641000  1
  C  C164  1  0.25253900  0.25071600  0.82641000  1
  C  C165  1  0.74928400  0.74746100  0.67359000  1
  C  C166  1  0.48254600  0.78621300  0.17445000  1
  C  C167  1  0.21378700  0.51745400  0.32555000  1
  C  C168  1  0.51745400  0.21378700  0.82555000  1
  C  C169  1  0.78621300  0.48254600  0.67445000  1
  C  C170  1  0.71286700  0.78828100  0.90938600  1
  C  C171  1  0.21171900  0.28713300  0.59061400  1
  C  C172  1  0.28713300  0.21171900  0.09061400  1
  C  C173  1  0.78828100  0.71286700  0.40938600  1
