# generated using pymatgen
data_Cu(NiC)3
_symmetry_space_group_name_H-M   'P 1'
_cell_length_a   7.93338368
_cell_length_b   7.93338368
_cell_length_c   7.93338368
_cell_angle_alpha   134.69065023
_cell_angle_beta   114.95712663
_cell_angle_gamma   82.80661600
_symmetry_Int_Tables_number   1
_chemical_formula_structural   Cu(NiC)3
_chemical_formula_sum   'Cu4 Ni12 C12'
_cell_volume   310.21991058
_cell_formula_units_Z   4
loop_
 _symmetry_equiv_pos_site_id
 _symmetry_equiv_pos_as_xyz
  1  'x, y, z'
loop_
 _atom_site_type_symbol
 _atom_site_label
 _atom_site_symmetry_multiplicity
 _atom_site_fract_x
 _atom_site_fract_y
 _atom_site_fract_z
 _atom_site_occupancy
  C  C0  1  0.27579300  0.37729400  0.89850000  1
  C  C1  1  0.52120600  0.62270600  0.89850000  1
  C  C2  1  0.98293900  0.87111800  0.11182100  1
  C  C3  1  0.24070300  0.12888200  0.11182100  1
  C  C4  1  0.48573200  0.00000000  0.48573200  1
  C  C5  1  0.24246500  0.74989700  0.49256900  1
  C  C6  1  0.74267200  0.25010300  0.49256900  1
  C  C7  1  0.62446500  0.61879900  0.49185100  1
  C  C8  1  0.62446500  0.13261400  0.00566600  1
  C  C9  1  0.87305200  0.86738600  0.49185100  1
  C  C10  1  0.87305200  0.38120100  0.00566600  1
  C  C11  1  0.01303000  0.50000000  0.51303000  1
  Ni  Ni12  1  0.39365200  0.66074600  0.30818300  1
  Ni  Ni13  1  0.64743700  0.91453100  0.30818300  1
  Ni  Ni14  1  0.39365200  0.08546900  0.73290600  1
  Ni  Ni15  1  0.64743700  0.33925400  0.73290600  1
  Ni  Ni16  1  0.75300500  0.00000000  0.75300500  1
  Ni  Ni17  1  0.97516800  0.73374700  0.24142100  1
  Ni  Ni18  1  0.50767400  0.26625300  0.24142100  1
  Ni  Ni19  1  0.74195800  0.50000000  0.24195800  1
  Ni  Ni20  1  0.85352100  0.16068700  0.26449200  1
  Ni  Ni21  1  0.10380500  0.41097100  0.26449200  1
  Ni  Ni22  1  0.85352100  0.58902900  0.69283400  1
  Ni  Ni23  1  0.10380500  0.83931300  0.69283400  1
  Cu  Cu24  1  0.26039700  0.50000000  0.76039700  1
  Cu  Cu25  1  0.51164800  0.75008900  0.76155900  1
  Cu  Cu26  1  0.01147000  0.24991100  0.76155900  1
  Cu  Cu27  1  0.24227500  0.00000000  0.24227500  1
