# generated using pymatgen
data_Cu2NiC3
_symmetry_space_group_name_H-M   'P 1'
_cell_length_a   9.13228400
_cell_length_b   9.13228400
_cell_length_c   11.10360300
_cell_angle_alpha   90.00000000
_cell_angle_beta   90.00000000
_cell_angle_gamma   90.00000000
_symmetry_Int_Tables_number   1
_chemical_formula_structural   Cu2NiC3
_chemical_formula_sum   'Cu16 Ni8 C24'
_cell_volume   926.02506792
_cell_formula_units_Z   8
loop_
 _symmetry_equiv_pos_site_id
 _symmetry_equiv_pos_as_xyz
  1  'x, y, z'
loop_
 _atom_site_type_symbol
 _atom_site_label
 _atom_site_symmetry_multiplicity
 _atom_site_fract_x
 _atom_site_fract_y
 _atom_site_fract_z
 _atom_site_occupancy
  C  C0  1  0.29471400  0.39606600  0.10152200  1
  C  C1  1  0.29471400  0.60393400  0.60152200  1
  C  C2  1  0.39606600  0.29471400  0.39847800  1
  C  C3  1  0.39606600  0.70528600  0.89847800  1
  C  C4  1  0.50000000  0.00000000  0.15234400  1
  C  C5  1  0.50000000  0.00000000  0.65234400  1
  C  C6  1  0.60393400  0.29471400  0.89847800  1
  C  C7  1  0.60393400  0.70528600  0.39847800  1
  C  C8  1  0.70528600  0.39606600  0.60152200  1
  C  C9  1  0.70528600  0.60393400  0.10152200  1
  C  C10  1  0.79471400  0.89606600  0.89847800  1
  C  C11  1  0.79471400  0.10393400  0.39847800  1
  C  C12  1  0.89606600  0.79471400  0.60152200  1
  C  C13  1  0.89606600  0.20528600  0.10152200  1
  C  C14  1  0.00000000  0.50000000  0.34765600  1
  C  C15  1  0.00000000  0.50000000  0.84765600  1
  C  C16  1  0.10393400  0.79471400  0.10152200  1
  C  C17  1  0.10393400  0.20528600  0.60152200  1
  C  C18  1  0.20528600  0.10393400  0.89847800  1
  C  C19  1  0.20528600  0.89606600  0.39847800  1
  C  C20  1  0.50000000  0.00000000  0.39958200  1
  C  C21  1  0.50000000  0.00000000  0.89958200  1
  C  C22  1  0.00000000  0.50000000  0.10041800  1
  C  C23  1  0.00000000  0.50000000  0.60041800  1
  Ni  Ni24  1  0.35293100  0.35293100  0.75000000  1
  Ni  Ni25  1  0.35293100  0.64706900  0.25000000  1
  Ni  Ni26  1  0.64706900  0.35293100  0.25000000  1
  Ni  Ni27  1  0.64706900  0.64706900  0.75000000  1
  Ni  Ni28  1  0.85293100  0.85293100  0.25000000  1
  Ni  Ni29  1  0.85293100  0.14706900  0.75000000  1
  Ni  Ni30  1  0.14706900  0.85293100  0.75000000  1
  Ni  Ni31  1  0.14706900  0.14706900  0.25000000  1
  Cu  Cu32  1  0.30567000  0.59913200  0.34752900  1
  Cu  Cu33  1  0.30567000  0.40086800  0.84752900  1
  Cu  Cu34  1  0.40086800  0.69433000  0.15247100  1
  Cu  Cu35  1  0.40086800  0.30567000  0.65247100  1
  Cu  Cu36  1  0.59913200  0.30567000  0.15247100  1
  Cu  Cu37  1  0.59913200  0.69433000  0.65247100  1
  Cu  Cu38  1  0.69433000  0.40086800  0.34752900  1
  Cu  Cu39  1  0.69433000  0.59913200  0.84752900  1
  Cu  Cu40  1  0.80567000  0.90086800  0.15247100  1
  Cu  Cu41  1  0.80567000  0.09913200  0.65247100  1
  Cu  Cu42  1  0.90086800  0.80567000  0.34752900  1
  Cu  Cu43  1  0.90086800  0.19433000  0.84752900  1
  Cu  Cu44  1  0.09913200  0.19433000  0.34752900  1
  Cu  Cu45  1  0.09913200  0.80567000  0.84752900  1
  Cu  Cu46  1  0.19433000  0.90086800  0.65247100  1
  Cu  Cu47  1  0.19433000  0.09913200  0.15247100  1
