# generated using pymatgen
data_CuNiC7
_symmetry_space_group_name_H-M   'P 1'
_cell_length_a   10.51437400
_cell_length_b   18.40937400
_cell_length_c   18.74774712
_cell_angle_alpha   79.44461191
_cell_angle_beta   90.00000000
_cell_angle_gamma   90.00000000
_symmetry_Int_Tables_number   1
_chemical_formula_structural   CuNiC7
_chemical_formula_sum   'Cu16 Ni16 C112'
_cell_volume   3567.46425100
_cell_formula_units_Z   16
loop_
 _symmetry_equiv_pos_site_id
 _symmetry_equiv_pos_as_xyz
  1  'x, y, z'
loop_
 _atom_site_type_symbol
 _atom_site_label
 _atom_site_symmetry_multiplicity
 _atom_site_fract_x
 _atom_site_fract_y
 _atom_site_fract_z
 _atom_site_occupancy
  Ni  Ni0  1  0.90768000  0.97654800  0.81585400  1
  Ni  Ni1  1  0.40768000  0.52345200  0.18414600  1
  Ni  Ni2  1  0.09232000  0.02345200  0.18414600  1
  Ni  Ni3  1  0.59232000  0.47654800  0.81585400  1
  Ni  Ni4  1  0.88915100  0.79692500  0.61352400  1
  Ni  Ni5  1  0.38915100  0.70307500  0.38647600  1
  Ni  Ni6  1  0.11084900  0.20307500  0.38647600  1
  Ni  Ni7  1  0.61084900  0.29692500  0.61352400  1
  Ni  Ni8  1  0.32457000  0.93051900  0.67448400  1
  Ni  Ni9  1  0.82457000  0.56948100  0.32551600  1
  Ni  Ni10  1  0.67543000  0.06948100  0.32551600  1
  Ni  Ni11  1  0.17543000  0.43051900  0.67448400  1
  Ni  Ni12  1  0.13112000  0.71913700  0.87508900  1
  Ni  Ni13  1  0.63112000  0.78086300  0.12491100  1
  Ni  Ni14  1  0.86888000  0.28086300  0.12491100  1
  Ni  Ni15  1  0.36888000  0.21913700  0.87508900  1
  Cu  Cu16  1  0.85588600  0.80377300  0.79800600  1
  Cu  Cu17  1  0.35588600  0.69622700  0.20199400  1
  Cu  Cu18  1  0.14411400  0.19622700  0.20199400  1
  Cu  Cu19  1  0.64411400  0.30377300  0.79800600  1
  Cu  Cu20  1  0.01830300  0.96154800  0.64451700  1
  Cu  Cu21  1  0.51830300  0.53845200  0.35548300  1
  Cu  Cu22  1  0.98169700  0.03845200  0.35548300  1
  Cu  Cu23  1  0.48169700  0.46154800  0.64451700  1
  Cu  Cu24  1  0.18094700  0.75732300  0.69758800  1
  Cu  Cu25  1  0.68094700  0.74267700  0.30241200  1
  Cu  Cu26  1  0.81905300  0.24267700  0.30241200  1
  Cu  Cu27  1  0.31905300  0.25732300  0.69758800  1
  Cu  Cu28  1  0.20692900  0.90425000  0.84830500  1
  Cu  Cu29  1  0.70692900  0.59575000  0.15169500  1
  Cu  Cu30  1  0.79307100  0.09575000  0.15169500  1
  Cu  Cu31  1  0.29307100  0.40425000  0.84830500  1
  C  C32  1  0.73897600  0.73561600  0.83845300  1
  C  C33  1  0.23897600  0.76438400  0.16154700  1
  C  C34  1  0.26102400  0.26438400  0.16154700  1
  C  C35  1  0.76102400  0.23561600  0.83845300  1
  C  C36  1  0.92734500  0.03578400  0.58997400  1
  C  C37  1  0.42734500  0.46421600  0.41002600  1
  C  C38  1  0.07265500  0.96421600  0.41002600  1
  C  C39  1  0.57265500  0.53578400  0.58997400  1
  C  C40  1  0.28177600  0.71639300  0.63677300  1
  C  C41  1  0.78177600  0.78360700  0.36322700  1
  C  C42  1  0.71822400  0.28360700  0.36322700  1
  C  C43  1  0.21822400  0.21639300  0.63677300  1
  C  C44  1  0.30985000  0.93029100  0.91745800  1
  C  C45  1  0.80985000  0.56970900  0.08254200  1
  C  C46  1  0.69015000  0.06970900  0.08254200  1
  C  C47  1  0.19015000  0.43029100  0.91745800  1
  C  C48  1  0.02258300  0.08720400  0.78302400  1
  C  C49  1  0.52258300  0.41279600  0.21697600  1
  C  C50  1  0.97741700  0.91279600  0.21697600  1
  C  C51  1  0.47741700  0.58720400  0.78302400  1
  C  C52  1  0.84260000  0.99306200  0.93096900  1
  C  C53  1  0.34260000  0.50693800  0.06903100  1
  C  C54  1  0.15740000  0.00693800  0.06903100  1
  C  C55  1  0.65740000  0.49306200  0.93096900  1
  C  C56  1  0.72053700  0.02106700  0.75512300  1
  C  C57  1  0.22053700  0.47893300  0.24487700  1
  C  C58  1  0.27946300  0.97893300  0.24487700  1
  C  C59  1  0.77946300  0.52106700  0.75512300  1
  C  C60  1  0.78172100  0.68364200  0.63474600  1
  C  C61  1  0.28172100  0.81635800  0.36525400  1
  C  C62  1  0.21827900  0.31635800  0.36525400  1
  C  C63  1  0.71827900  0.18364200  0.63474600  1
  C  C64  1  0.99462800  0.77953400  0.50783800  1
  C  C65  1  0.49462800  0.72046600  0.49216200  1
  C  C66  1  0.00537200  0.22046600  0.49216200  1
  C  C67  1  0.50537200  0.27953400  0.50783800  1
  C  C68  1  0.71691500  0.86590000  0.55803100  1
  C  C69  1  0.21691500  0.63410000  0.44196900  1
  C  C70  1  0.28308500  0.13410000  0.44196900  1
  C  C71  1  0.78308500  0.36590000  0.55803100  1
  C  C72  1  0.42641000  0.04517700  0.66157200  1
  C  C73  1  0.92641000  0.45482300  0.33842800  1
  C  C74  1  0.57359000  0.95482300  0.33842800  1
  C  C75  1  0.07359000  0.54517700  0.66157200  1
  C  C76  1  0.49191000  0.85691400  0.73066300  1
  C  C77  1  0.99191000  0.64308600  0.26933700  1
  C  C78  1  0.50809000  0.14308600  0.26933700  1
  C  C79  1  0.00809000  0.35691400  0.73066300  1
  C  C80  1  0.36689700  0.90955700  0.55689300  1
  C  C81  1  0.86689700  0.59044300  0.44310700  1
  C  C82  1  0.63310300  0.09044300  0.44310700  1
  C  C83  1  0.13310300  0.40955700  0.55689300  1
  C  C84  1  0.01533900  0.60999600  0.87419000  1
  C  C85  1  0.51533900  0.89000400  0.12581000  1
  C  C86  1  0.98466100  0.39000400  0.12581000  1
  C  C87  1  0.48466100  0.10999600  0.87419000  1
  C  C88  1  0.03641900  0.74570600  0.98085500  1
  C  C89  1  0.53641900  0.75429400  0.01914500  1
  C  C90  1  0.96358100  0.25429400  0.01914500  1
  C  C91  1  0.46358100  0.24570600  0.98085500  1
  C  C92  1  0.31506700  0.66275800  0.92874100  1
  C  C93  1  0.81506700  0.83724200  0.07125900  1
  C  C94  1  0.68493300  0.33724200  0.07125900  1
  C  C95  1  0.18493300  0.16275800  0.92874100  1
  C  C96  1  0.82471800  0.87274100  0.83154400  1
  C  C97  1  0.32471800  0.62725900  0.16845600  1
  C  C98  1  0.17528200  0.12725900  0.16845600  1
  C  C99  1  0.67528200  0.37274100  0.83154400  1
  C  C100  1  0.98352600  0.89826200  0.60334500  1
  C  C101  1  0.48352600  0.60173800  0.39665500  1
  C  C102  1  0.01647400  0.10173800  0.39665500  1
  C  C103  1  0.51647400  0.39826200  0.60334500  1
  C  C104  1  0.20196400  0.84079600  0.69395000  1
  C  C105  1  0.70196400  0.65920400  0.30605000  1
  C  C106  1  0.79803600  0.15920400  0.30605000  1
  C  C107  1  0.29803600  0.34079600  0.69395000  1
  C  C108  1  0.23049400  0.81967100  0.86206300  1
  C  C109  1  0.73049400  0.68032900  0.13793700  1
  C  C110  1  0.76950600  0.18032900  0.13793700  1
  C  C111  1  0.26950600  0.31967100  0.86206300  1
  C  C112  1  0.97670100  0.93994700  0.72448200  1
  C  C113  1  0.47670100  0.56005300  0.27551800  1
  C  C114  1  0.02329900  0.06005300  0.27551800  1
  C  C115  1  0.52329900  0.43994700  0.72448200  1
  C  C116  1  0.15949500  0.98430500  0.63571500  1
  C  C117  1  0.65949500  0.51569500  0.36428500  1
  C  C118  1  0.84050500  0.01569500  0.36428500  1
  C  C119  1  0.34050500  0.48430500  0.63571500  1
  C  C120  1  0.25689700  0.94658000  0.77471400  1
  C  C121  1  0.75689700  0.55342000  0.22528600  1
  C  C122  1  0.74310300  0.05342000  0.22528600  1
  C  C123  1  0.24310300  0.44658000  0.77471400  1
  C  C124  1  0.06689800  0.92304200  0.86285700  1
  C  C125  1  0.56689800  0.57695800  0.13714300  1
  C  C126  1  0.93310200  0.07695800  0.13714300  1
  C  C127  1  0.43310200  0.42304200  0.86285700  1
  C  C128  1  0.81973500  0.81084300  0.71662600  1
  C  C129  1  0.31973500  0.68915700  0.28337400  1
  C  C130  1  0.18026500  0.18915700  0.28337400  1
  C  C131  1  0.68026500  0.31084300  0.71662600  1
  C  C132  1  0.04698600  0.74262100  0.66897500  1
  C  C133  1  0.54698600  0.75737900  0.33102500  1
  C  C134  1  0.95301400  0.25737900  0.33102500  1
  C  C135  1  0.45301400  0.24262100  0.66897500  1
  C  C136  1  0.20673800  0.71224400  0.77492200  1
  C  C137  1  0.70673800  0.78775600  0.22507800  1
  C  C138  1  0.79326200  0.28775600  0.22507800  1
  C  C139  1  0.29326200  0.21224400  0.77492200  1
  C  C140  1  0.99703600  0.78126300  0.80926300  1
  C  C141  1  0.49703600  0.71873700  0.19073700  1
  C  C142  1  0.00296400  0.21873700  0.19073700  1
  C  C143  1  0.50296400  0.28126300  0.80926300  1
