# generated using pymatgen
data_Cu2(Ni3C4)3
_symmetry_space_group_name_H-M   'P 1'
_cell_length_a   5.34345700
_cell_length_b   6.68502865
_cell_length_c   6.99472799
_cell_angle_alpha   116.23073063
_cell_angle_beta   89.83519940
_cell_angle_gamma   107.87549621
_symmetry_Int_Tables_number   1
_chemical_formula_structural   Cu2(Ni3C4)3
_chemical_formula_sum   'Cu2 Ni9 C12'
_cell_volume   210.71370025
_cell_formula_units_Z   1
loop_
 _symmetry_equiv_pos_site_id
 _symmetry_equiv_pos_as_xyz
  1  'x, y, z'
loop_
 _atom_site_type_symbol
 _atom_site_label
 _atom_site_symmetry_multiplicity
 _atom_site_fract_x
 _atom_site_fract_y
 _atom_site_fract_z
 _atom_site_occupancy
  C  C0  1  0.00000000  0.00000000  0.00000000  1
  C  C1  1  0.50000000  0.50000000  0.50000000  1
  Ni  Ni2  1  0.35471300  0.00198400  0.87171700  1
  Ni  Ni3  1  0.64528700  0.99801600  0.12828300  1
  Ni  Ni4  1  0.41542300  0.40886700  0.75213900  1
  Ni  Ni5  1  0.58457700  0.59113300  0.24786100  1
  Ni  Ni6  1  0.00446500  0.17781300  0.58273200  1
  Ni  Ni7  1  0.99553600  0.82218700  0.41726800  1
  Ni  Ni8  1  0.19622800  0.00471500  0.60100400  1
  Ni  Ni9  1  0.80377200  0.99528500  0.39899600  1
  Ni  Ni10  1  0.00000000  0.50000000  0.00000000  1
  Cu  Cu11  1  0.62957100  0.71861900  0.79524800  1
  Cu  Cu12  1  0.37042900  0.28138100  0.20475200  1
  C  C13  1  0.45986700  0.25024700  0.76772100  1
  C  C14  1  0.54013300  0.74975300  0.23227900  1
  C  C15  1  0.13401200  0.25005100  0.50928200  1
  C  C16  1  0.86598800  0.74994900  0.49071800  1
  C  C17  1  0.71681300  0.03373800  0.70405600  1
  C  C18  1  0.28318700  0.96626200  0.29594400  1
  C  C19  1  0.39314000  0.66052000  0.74991400  1
  C  C20  1  0.60686000  0.33948000  0.25008600  1
  C  C21  1  0.80002100  0.43657800  0.94548900  1
  C  C22  1  0.19997900  0.56342200  0.05451100  1
