# generated using pymatgen
data_Cu3Ni3C22
_symmetry_space_group_name_H-M   'P 1'
_cell_length_a   5.92442302
_cell_length_b   5.92442302
_cell_length_c   9.74358534
_cell_angle_alpha   89.64957810
_cell_angle_beta   89.64957810
_cell_angle_gamma   60.14856861
_symmetry_Int_Tables_number   1
_chemical_formula_structural   Cu3Ni3C22
_chemical_formula_sum   'Cu3 Ni3 C22'
_cell_volume   296.60531340
_cell_formula_units_Z   1
loop_
 _symmetry_equiv_pos_site_id
 _symmetry_equiv_pos_as_xyz
  1  'x, y, z'
loop_
 _atom_site_type_symbol
 _atom_site_label
 _atom_site_symmetry_multiplicity
 _atom_site_fract_x
 _atom_site_fract_y
 _atom_site_fract_z
 _atom_site_occupancy
  C  C0  1  0.66361800  0.66361800  0.90444900  1
  C  C1  1  0.00547400  0.00547400  0.98896000  1
  C  C2  1  0.00463400  0.00463400  0.49042600  1
  C  C3  1  0.33066600  0.33066600  0.40380500  1
  Ni  Ni4  1  0.83213800  0.34601300  0.21896800  1
  Ni  Ni5  1  0.34601300  0.83213800  0.21896800  1
  Ni  Ni6  1  0.17455400  0.17455400  0.72139700  1
  Cu  Cu7  1  0.83014200  0.83014200  0.21152800  1
  Cu  Cu8  1  0.66045000  0.16850200  0.71472700  1
  Cu  Cu9  1  0.16850200  0.66045000  0.71472700  1
  C  C10  1  0.67038900  0.67038900  0.49045700  1
  C  C11  1  0.33944900  0.33944900  0.98859200  1
  C  C12  1  0.82374500  0.34599700  0.58707100  1
  C  C13  1  0.51861000  0.51861000  0.35147900  1
  C  C14  1  0.65449600  0.65449600  0.11088000  1
  C  C15  1  0.00805400  0.00805400  0.29727400  1
  C  C16  1  0.01572200  0.01572200  0.79652700  1
  C  C17  1  0.34599700  0.82374500  0.58707100  1
  C  C18  1  0.96074900  0.51621400  0.34983400  1
  C  C19  1  0.51621400  0.96074900  0.34983400  1
  C  C20  1  0.17447000  0.17447000  0.08798100  1
  C  C21  1  0.83039600  0.83039600  0.58551100  1
  C  C22  1  0.47583100  0.03620700  0.85095000  1
  C  C23  1  0.03620700  0.47583100  0.85095000  1
  C  C24  1  0.31547800  0.31547800  0.61366600  1
  C  C25  1  0.65809600  0.16738900  0.08555900  1
  C  C26  1  0.47989500  0.47989500  0.85059500  1
  C  C27  1  0.16738900  0.65809600  0.08555900  1
