# generated using pymatgen
data_CuNi2C7
_symmetry_space_group_name_H-M   'P 1'
_cell_length_a   14.05945000
_cell_length_b   7.57331300
_cell_length_c   12.23817615
_cell_angle_alpha   87.12804311
_cell_angle_beta   90.00000000
_cell_angle_gamma   90.00000000
_symmetry_Int_Tables_number   1
_chemical_formula_structural   CuNi2C7
_chemical_formula_sum   'Cu4 Ni8 C28'
_cell_volume   1301.44290780
_cell_formula_units_Z   4
loop_
 _symmetry_equiv_pos_site_id
 _symmetry_equiv_pos_as_xyz
  1  'x, y, z'
loop_
 _atom_site_type_symbol
 _atom_site_label
 _atom_site_symmetry_multiplicity
 _atom_site_fract_x
 _atom_site_fract_y
 _atom_site_fract_z
 _atom_site_occupancy
  Ni  Ni0  1  0.55569800  0.31832100  0.20118300  1
  Ni  Ni1  1  0.86676800  0.20843500  0.21597400  1
  Ni  Ni2  1  0.36676800  0.79156500  0.28402600  1
  Ni  Ni3  1  0.05569800  0.68167900  0.29881700  1
  Ni  Ni4  1  0.94430200  0.31832100  0.70118300  1
  Ni  Ni5  1  0.63323200  0.20843500  0.71597400  1
  Ni  Ni6  1  0.13323200  0.79156500  0.78402600  1
  Ni  Ni7  1  0.44430200  0.68167900  0.79881700  1
  Cu  Cu8  1  0.23360300  0.20320000  0.02613000  1
  Cu  Cu9  1  0.73360300  0.79680000  0.47387000  1
  Cu  Cu10  1  0.26639700  0.20320000  0.52613000  1
  Cu  Cu11  1  0.76639700  0.79680000  0.97387000  1
  C  C12  1  0.18651900  0.85211500  0.09922800  1
  C  C13  1  0.41198100  0.06321000  0.10049000  1
  C  C14  1  0.38188500  0.51474100  0.09588300  1
  C  C15  1  0.92555700  0.85658900  0.11063000  1
  C  C16  1  0.07315500  0.35246100  0.14308600  1
  C  C17  1  0.68929900  0.99810300  0.14432700  1
  C  C18  1  0.74410800  0.53114400  0.14441900  1
  C  C19  1  0.24410800  0.46885600  0.35558100  1
  C  C20  1  0.18929900  0.00189700  0.35567300  1
  C  C21  1  0.57315500  0.64753900  0.35691400  1
  C  C22  1  0.42555700  0.14341100  0.38937000  1
  C  C23  1  0.88188500  0.48525900  0.40411700  1
  C  C24  1  0.91198100  0.93679000  0.39951000  1
  C  C25  1  0.68651900  0.14788500  0.40077200  1
  C  C26  1  0.31348100  0.85211500  0.59922800  1
  C  C27  1  0.08801900  0.06321000  0.60049000  1
  C  C28  1  0.11811500  0.51474100  0.59588300  1
  C  C29  1  0.57444300  0.85658900  0.61063000  1
  C  C30  1  0.42684500  0.35246100  0.64308600  1
  C  C31  1  0.81070100  0.99810300  0.64432700  1
  C  C32  1  0.75589200  0.53114400  0.64441900  1
  C  C33  1  0.25589200  0.46885600  0.85558100  1
  C  C34  1  0.31070100  0.00189700  0.85567300  1
  C  C35  1  0.92684500  0.64753900  0.85691400  1
  C  C36  1  0.07444300  0.14341100  0.88937000  1
  C  C37  1  0.61811500  0.48525900  0.90411700  1
  C  C38  1  0.58801900  0.93679000  0.89951000  1
  C  C39  1  0.81348100  0.14788500  0.90077200  1
