# generated using pymatgen
data_Cu5NiC30
_symmetry_space_group_name_H-M   'P 1'
_cell_length_a   3.13699300
_cell_length_b   8.24169300
_cell_length_c   14.29532045
_cell_angle_alpha   89.93771151
_cell_angle_beta   90.00000000
_cell_angle_gamma   90.00000000
_symmetry_Int_Tables_number   1
_chemical_formula_structural   Cu5NiC30
_chemical_formula_sum   'Cu5 Ni1 C30'
_cell_volume   369.59290129
_cell_formula_units_Z   1
loop_
 _symmetry_equiv_pos_site_id
 _symmetry_equiv_pos_as_xyz
  1  'x, y, z'
loop_
 _atom_site_type_symbol
 _atom_site_label
 _atom_site_symmetry_multiplicity
 _atom_site_fract_x
 _atom_site_fract_y
 _atom_site_fract_z
 _atom_site_occupancy
  C  C0  1  0.50000000  0.70628900  0.99242100  1
  C  C1  1  0.50000000  0.66000800  0.35805500  1
  C  C2  1  0.50000000  0.63512800  0.64983600  1
  C  C3  1  0.50000000  0.20663500  0.49203300  1
  C  C4  1  0.50000000  0.15691700  0.85623600  1
  C  C5  1  0.50000000  0.13287900  0.15148300  1
  Ni  Ni6  1  0.00000000  0.36652900  0.00575800  1
  Cu  Cu7  1  0.00000000  0.86442200  0.50415800  1
  Cu  Cu8  1  0.00000000  0.82342600  0.81624200  1
  Cu  Cu9  1  0.00000000  0.81329800  0.17993700  1
  Cu  Cu10  1  0.00000000  0.32379400  0.31635700  1
  Cu  Cu11  1  0.00000000  0.31235500  0.67978400  1
  C  C12  1  0.50000000  0.99975600  0.66655500  1
  C  C13  1  0.00000000  0.99887000  0.99896700  1
  C  C14  1  0.50000000  0.00012200  0.33342100  1
  C  C15  1  0.50000000  0.50095100  0.16865000  1
  C  C16  1  0.00000000  0.50014700  0.49974400  1
  C  C17  1  0.50000000  0.50081000  0.83213000  1
  C  C18  1  0.50000000  0.98889900  0.43048800  1
  C  C19  1  0.50000000  0.98112300  0.76319300  1
  C  C20  1  0.50000000  0.86380100  0.60871500  1
  C  C21  1  0.50000000  0.86048000  0.27933700  1
  C  C22  1  0.00000000  0.84558300  0.95776200  1
  C  C23  1  0.50000000  0.65410500  0.12796900  1
  C  C24  1  0.50000000  0.65124600  0.78844100  1
  C  C25  1  0.00000000  0.64023800  0.44550500  1
  C  C26  1  0.00000000  0.51199200  0.59679900  1
  C  C27  1  0.50000000  0.49132400  0.92885100  1
  C  C28  1  0.50000000  0.48331600  0.26541300  1
  C  C29  1  0.50000000  0.36268600  0.11211300  1
  C  C30  1  0.50000000  0.35958900  0.77886800  1
  C  C31  1  0.00000000  0.34856600  0.45735200  1
  C  C32  1  0.50000000  0.15468500  0.62717800  1
  C  C33  1  0.50000000  0.15126100  0.29065000  1
  C  C34  1  0.00000000  0.13652800  0.94333700  1
  C  C35  1  0.00000000  0.01224300  0.09626100  1
