# generated using pymatgen
data_Cu5(NiC24)3
_symmetry_space_group_name_H-M   'P 1'
_cell_length_a   8.69461100
_cell_length_b   8.70833437
_cell_length_c   12.32996051
_cell_angle_alpha   89.69409442
_cell_angle_beta   88.63208577
_cell_angle_gamma   89.84869293
_symmetry_Int_Tables_number   1
_chemical_formula_structural   Cu5(NiC24)3
_chemical_formula_sum   'Cu5 Ni3 C72'
_cell_volume   933.28780364
_cell_formula_units_Z   1
loop_
 _symmetry_equiv_pos_site_id
 _symmetry_equiv_pos_as_xyz
  1  'x, y, z'
loop_
 _atom_site_type_symbol
 _atom_site_label
 _atom_site_symmetry_multiplicity
 _atom_site_fract_x
 _atom_site_fract_y
 _atom_site_fract_z
 _atom_site_occupancy
  C  C0  1  0.92470500  0.08555600  0.69562600  1
  C  C1  1  0.91985700  0.69680900  0.75956100  1
  C  C2  1  0.78927000  0.77905600  0.17778500  1
  C  C3  1  0.70923700  0.27929700  0.32462900  1
  C  C4  1  0.58043200  0.19594900  0.74069300  1
  C  C5  1  0.57622500  0.58289400  0.80358400  1
  C  C6  1  0.42096000  0.41891100  0.19809200  1
  C  C7  1  0.41877800  0.80387900  0.26311100  1
  C  C8  1  0.29442700  0.71625900  0.67448500  1
  C  C9  1  0.20629000  0.21705200  0.82544500  1
  C  C10  1  0.08535100  0.30415400  0.23823700  1
  C  C11  1  0.07748900  0.92032500  0.30100400  1
  Ni  Ni12  1  0.74774800  0.96006600  0.39182200  1
  Ni  Ni13  1  0.25307800  0.96437800  0.10435400  1
  Ni  Ni14  1  0.24764400  0.46599100  0.39553600  1
  Cu  Cu15  1  0.75256800  0.53114700  0.60802300  1
  Cu  Cu16  1  0.74820500  0.03050600  0.89190800  1
  Cu  Cu17  1  0.75203300  0.45949500  0.11033600  1
  Cu  Cu18  1  0.25414900  0.03836300  0.60979300  1
  Cu  Cu19  1  0.24628000  0.53822800  0.88991200  1
  C  C20  1  0.96538200  0.25294100  0.49341500  1
  C  C21  1  0.89523300  0.38402700  0.85209500  1
  C  C22  1  0.89650700  0.10146400  0.14920100  1
  C  C23  1  0.60091500  0.59933900  0.35047400  1
  C  C24  1  0.60543500  0.88434400  0.64673800  1
  C  C25  1  0.53604000  0.74700500  0.00739100  1
  C  C26  1  0.46040300  0.24963200  0.99442700  1
  C  C27  1  0.39625700  0.11700100  0.35572900  1
  C  C28  1  0.39704400  0.39523800  0.65234100  1
  C  C29  1  0.10410200  0.89645000  0.84745900  1
  C  C30  1  0.10298300  0.61813900  0.14364600  1
  C  C31  1  0.03943900  0.75253100  0.50622300  1
  C  C32  1  0.95424000  0.86847600  0.43273500  1
  C  C33  1  0.92470800  0.88504800  0.85088900  1
  C  C34  1  0.93253000  0.68409400  0.59620600  1
  C  C35  1  0.92863900  0.59704400  0.16736800  1
  C  C36  1  0.89841500  0.37061800  0.57426000  1
  C  C37  1  0.85656800  0.21513300  0.81911400  1
  C  C38  1  0.85161500  0.41204700  0.97139200  1
  C  C39  1  0.85406300  0.97997500  0.23977300  1
  C  C40  1  0.84295300  0.26467800  0.18607400  1
  C  C41  1  0.83438800  0.17880900  0.43132500  1
  C  C42  1  0.82884900  0.05067200  0.04338300  1
  C  C43  1  0.80438400  0.50185500  0.78152600  1
  C  C44  1  0.69615500  0.00180600  0.71629300  1
  C  C45  1  0.67098900  0.54991500  0.45640600  1
  C  C46  1  0.66800800  0.66691800  0.06885800  1
  C  C47  1  0.65021700  0.76043000  0.30926700  1
  C  C48  1  0.64057100  0.90962200  0.52542800  1
  C  C49  1  0.64409200  0.71557100  0.68086700  1
  C  C50  1  0.64175500  0.47643700  0.26115500  1
  C  C51  1  0.60767900  0.86571100  0.92906700  1
  C  C52  1  0.56725500  0.18054200  0.90446100  1
  C  C53  1  0.57651400  0.38428900  0.64938300  1
  C  C54  1  0.57149300  0.09745000  0.33300700  1
  C  C55  1  0.54555000  0.36417700  0.06701800  1
  C  C56  1  0.45113700  0.63288000  0.93504300  1
  C  C57  1  0.43028700  0.90472900  0.66825800  1
  C  C58  1  0.42009900  0.60833900  0.35339300  1
  C  C59  1  0.42990500  0.81709800  0.09797000  1
  C  C60  1  0.39416500  0.12954000  0.07537800  1
  C  C61  1  0.35976300  0.51586500  0.74379200  1
  C  C62  1  0.35650700  0.28600100  0.32105100  1
  C  C63  1  0.35834600  0.09469100  0.47722100  1
  C  C64  1  0.34313300  0.23196300  0.68985100  1
  C  C65  1  0.32630600  0.32893900  0.93487700  1
  C  C66  1  0.32646500  0.45192600  0.54954500  1
  C  C67  1  0.30416000  0.99793700  0.29095000  1
  C  C68  1  0.19648600  0.49947700  0.20925700  1
  C  C69  1  0.17447700  0.95341700  0.95001800  1
  C  C70  1  0.17302500  0.83258200  0.56625700  1
  C  C71  1  0.15891100  0.73431300  0.80972000  1
  C  C72  1  0.14022400  0.01788700  0.75544500  1
  C  C73  1  0.14100400  0.59705400  0.02273600  1
  C  C74  1  0.14140200  0.78796600  0.17785700  1
  C  C75  1  0.10780500  0.63403700  0.42664800  1
  C  C76  1  0.06989600  0.40401200  0.83081300  1
  C  C77  1  0.07332900  0.32447300  0.40304500  1
  C  C78  1  0.07653200  0.11170800  0.14810000  1
  C  C79  1  0.05054700  0.13543200  0.56444600  1
