# generated using pymatgen
data_Cu(NiC2)3
_symmetry_space_group_name_H-M   'P 1'
_cell_length_a   7.14149300
_cell_length_b   9.03622800
_cell_length_c   13.72254900
_cell_angle_alpha   90.00000000
_cell_angle_beta   90.00000000
_cell_angle_gamma   90.00000000
_symmetry_Int_Tables_number   1
_chemical_formula_structural   Cu(NiC2)3
_chemical_formula_sum   'Cu8 Ni24 C48'
_cell_volume   885.54571407
_cell_formula_units_Z   8
loop_
 _symmetry_equiv_pos_site_id
 _symmetry_equiv_pos_as_xyz
  1  'x, y, z'
loop_
 _atom_site_type_symbol
 _atom_site_label
 _atom_site_symmetry_multiplicity
 _atom_site_fract_x
 _atom_site_fract_y
 _atom_site_fract_z
 _atom_site_occupancy
  C  C0  1  0.64532200  0.49579800  0.74147100  1
  C  C1  1  0.35467800  0.00420200  0.24147100  1
  C  C2  1  0.85467800  0.99579800  0.25852900  1
  C  C3  1  0.14532200  0.50420200  0.75852900  1
  C  C4  1  0.35467800  0.50420200  0.25852900  1
  C  C5  1  0.64532200  0.99579800  0.75852900  1
  C  C6  1  0.14532200  0.00420200  0.74147100  1
  C  C7  1  0.85467800  0.49579800  0.24147100  1
  Ni  Ni8  1  0.38276400  0.60221400  0.59235600  1
  Ni  Ni9  1  0.61723600  0.89778600  0.09235600  1
  Ni  Ni10  1  0.11723600  0.10221400  0.40764400  1
  Ni  Ni11  1  0.88276400  0.39778600  0.90764400  1
  Ni  Ni12  1  0.61723600  0.39778600  0.40764400  1
  Ni  Ni13  1  0.38276400  0.10221400  0.90764400  1
  Ni  Ni14  1  0.88276400  0.89778600  0.59235600  1
  Ni  Ni15  1  0.11723600  0.60221400  0.09235600  1
  Ni  Ni16  1  0.39313700  0.72837100  0.67672100  1
  Ni  Ni17  1  0.60686300  0.77162900  0.17672100  1
  Ni  Ni18  1  0.10686300  0.22837100  0.32327900  1
  Ni  Ni19  1  0.89313700  0.27162900  0.82327900  1
  Ni  Ni20  1  0.60686300  0.27162900  0.32327900  1
  Ni  Ni21  1  0.39313700  0.22837100  0.82327900  1
  Ni  Ni22  1  0.89313700  0.77162900  0.67672100  1
  Ni  Ni23  1  0.10686300  0.72837100  0.17672100  1
  Ni  Ni24  1  0.40692200  0.40718000  0.89335400  1
  Ni  Ni25  1  0.59307800  0.09282000  0.39335400  1
  Ni  Ni26  1  0.09307800  0.90718000  0.10664600  1
  Ni  Ni27  1  0.90692200  0.59282000  0.60664600  1
  Ni  Ni28  1  0.59307800  0.59282000  0.10664600  1
  Ni  Ni29  1  0.40692200  0.90718000  0.60664600  1
  Ni  Ni30  1  0.90692200  0.09282000  0.89335400  1
  Ni  Ni31  1  0.09307800  0.40718000  0.39335400  1
  Cu  Cu32  1  0.63351600  0.74771200  0.91801900  1
  Cu  Cu33  1  0.36648400  0.75228800  0.41801900  1
  Cu  Cu34  1  0.86648400  0.24771200  0.08198100  1
  Cu  Cu35  1  0.13351600  0.25228800  0.58198100  1
  Cu  Cu36  1  0.36648400  0.25228800  0.08198100  1
  Cu  Cu37  1  0.63351600  0.24771200  0.58198100  1
  Cu  Cu38  1  0.13351600  0.75228800  0.91801900  1
  Cu  Cu39  1  0.86648400  0.74771200  0.41801900  1
  C  C40  1  0.61937200  0.87444500  0.95664600  1
  C  C41  1  0.38062800  0.62555500  0.45664600  1
  C  C42  1  0.88062800  0.37444500  0.04335400  1
  C  C43  1  0.11937200  0.12555500  0.54335400  1
  C  C44  1  0.38062800  0.12555500  0.04335400  1
  C  C45  1  0.61937200  0.37444500  0.54335400  1
  C  C46  1  0.11937200  0.62555500  0.95664600  1
  C  C47  1  0.88062800  0.87444500  0.45664600  1
  C  C48  1  0.62689000  0.62958100  0.96544800  1
  C  C49  1  0.37311000  0.87041900  0.46544800  1
  C  C50  1  0.87311000  0.12958100  0.03455200  1
  C  C51  1  0.12689000  0.37041900  0.53455200  1
  C  C52  1  0.37311000  0.37041900  0.03455200  1
  C  C53  1  0.62689000  0.12958100  0.53455200  1
  C  C54  1  0.12689000  0.87041900  0.96544800  1
  C  C55  1  0.87311000  0.62958100  0.46544800  1
  C  C56  1  0.65644400  0.74201500  0.82416400  1
  C  C57  1  0.34355600  0.75798500  0.32416400  1
  C  C58  1  0.84355600  0.24201500  0.17583600  1
  C  C59  1  0.15644400  0.25798500  0.67583600  1
  C  C60  1  0.34355600  0.25798500  0.17583600  1
  C  C61  1  0.65644400  0.24201500  0.67583600  1
  C  C62  1  0.15644400  0.75798500  0.82416400  1
  C  C63  1  0.84355600  0.74201500  0.32416400  1
  C  C64  1  0.38908200  0.61227900  0.66446900  1
  C  C65  1  0.61091800  0.88772100  0.16446900  1
  C  C66  1  0.11091800  0.11227900  0.33553100  1
  C  C67  1  0.88908200  0.38772100  0.83553100  1
  C  C68  1  0.61091800  0.38772100  0.33553100  1
  C  C69  1  0.38908200  0.11227900  0.83553100  1
  C  C70  1  0.88908200  0.88772100  0.66446900  1
  C  C71  1  0.11091800  0.61227900  0.16446900  1
  C  C72  1  0.39996400  0.39119400  0.82216900  1
  C  C73  1  0.60003600  0.10880600  0.32216900  1
  C  C74  1  0.10003600  0.89119400  0.17783100  1
  C  C75  1  0.89996400  0.60880600  0.67783100  1
  C  C76  1  0.60003600  0.60880600  0.17783100  1
  C  C77  1  0.39996400  0.89119400  0.67783100  1
  C  C78  1  0.89996400  0.10880600  0.82216900  1
  C  C79  1  0.10003600  0.39119400  0.32216900  1
