# generated using pymatgen
data_Cu10Ni2C
_symmetry_space_group_name_H-M   'P 1'
_cell_length_a   7.31322439
_cell_length_b   7.31322439
_cell_length_c   7.71831886
_cell_angle_alpha   76.11271759
_cell_angle_beta   76.11271759
_cell_angle_gamma   47.52711911
_symmetry_Int_Tables_number   1
_chemical_formula_structural   Cu10Ni2C
_chemical_formula_sum   'Cu10 Ni2 C1'
_cell_volume   293.82405672
_cell_formula_units_Z   1
loop_
 _symmetry_equiv_pos_site_id
 _symmetry_equiv_pos_as_xyz
  1  'x, y, z'
loop_
 _atom_site_type_symbol
 _atom_site_label
 _atom_site_symmetry_multiplicity
 _atom_site_fract_x
 _atom_site_fract_y
 _atom_site_fract_z
 _atom_site_occupancy
  C  C0  1  0.91308000  0.91308000  0.07965900  1
  Ni  Ni1  1  0.24381100  0.24381100  0.82933000  1
  Ni  Ni2  1  0.28756700  0.28756700  0.37457600  1
  Cu  Cu3  1  0.98272200  0.98272200  0.25412400  1
  Cu  Cu4  1  0.88854100  0.88854100  0.85683800  1
  Cu  Cu5  1  0.35945500  0.35945500  0.43916100  1
  Cu  Cu6  1  0.19547800  0.19547800  0.42242000  1
  Cu  Cu7  1  0.62975700  0.42057200  0.94891000  1
  Cu  Cu8  1  0.42057200  0.62975700  0.94891000  1
  Cu  Cu9  1  0.01889300  0.39736100  0.84192400  1
  Cu  Cu10  1  0.39736100  0.01889300  0.84192400  1
  Cu  Cu11  1  0.09120400  0.56155900  0.18611200  1
  Cu  Cu12  1  0.56155900  0.09120400  0.18611200  1
