# generated using pymatgen
data_CuNiC9
_symmetry_space_group_name_H-M   'P 1'
_cell_length_a   5.98543611
_cell_length_b   5.98016112
_cell_length_c   10.04714513
_cell_angle_alpha   96.70612834
_cell_angle_beta   96.66650708
_cell_angle_gamma   59.15946355
_symmetry_Int_Tables_number   1
_chemical_formula_structural   CuNiC9
_chemical_formula_sum   'Cu3 Ni3 C27'
_cell_volume   305.99424682
_cell_formula_units_Z   3
loop_
 _symmetry_equiv_pos_site_id
 _symmetry_equiv_pos_as_xyz
  1  'x, y, z'
loop_
 _atom_site_type_symbol
 _atom_site_label
 _atom_site_symmetry_multiplicity
 _atom_site_fract_x
 _atom_site_fract_y
 _atom_site_fract_z
 _atom_site_occupancy
  C  C0  1  0.04562600  0.04547900  0.00343400  1
  C  C1  1  0.63624200  0.14298800  0.55742100  1
  C  C2  1  0.30702000  0.29785700  0.05555300  1
  C  C3  1  0.35282300  0.35062200  0.79642500  1
  C  C4  1  0.22116500  0.22947100  0.55618500  1
  C  C5  1  0.14710300  0.63828900  0.56020500  1
  C  C6  1  0.63925600  0.64214700  0.53712300  1
  C  C7  1  0.67255100  0.67310000  0.28910900  1
  C  C8  1  0.55107700  0.53809000  0.00949300  1
  C  C9  1  0.79867900  0.80308100  0.07022300  1
  C  C10  1  0.02862600  0.02845000  0.48787000  1
  Ni  Ni11  1  0.85029500  0.35143100  0.78061900  1
  Ni  Ni12  1  0.35032700  0.85035100  0.78173200  1
  Ni  Ni13  1  0.17026900  0.17039700  0.28370000  1
  Cu  Cu14  1  0.66904600  0.17294100  0.28653000  1
  Cu  Cu15  1  0.17316300  0.66819000  0.28630000  1
  Cu  Cu16  1  0.84747500  0.85042300  0.78841900  1
  C  C17  1  0.19155700  0.17707600  0.88527600  1
  C  C18  1  0.48865000  0.00991500  0.17948600  1
  C  C19  1  0.71527300  0.19750000  0.89258700  1
  C  C20  1  0.98952500  0.98766700  0.17496900  1
  C  C21  1  0.34089900  0.34312300  0.40958500  1
  C  C22  1  0.01070900  0.48642200  0.17771200  1
  C  C23  1  0.47872900  0.47532200  0.18176000  1
  C  C24  1  0.85582500  0.33236500  0.39588100  1
  C  C25  1  0.20520100  0.71657500  0.89016300  1
  C  C26  1  0.50420800  0.52123600  0.67253600  1
  C  C27  1  0.33186800  0.85721500  0.39603200  1
  C  C28  1  0.98797900  0.51153600  0.67169100  1
  C  C29  1  0.69069100  0.69373100  0.89309600  1
  C  C30  1  0.50375300  0.98848600  0.67290900  1
  C  C31  1  0.85927100  0.86401300  0.39831400  1
  C  C32  1  0.00276700  0.00234500  0.66867700  1
