# generated using pymatgen
data_Cu2NiC8
_symmetry_space_group_name_H-M   'P 1'
_cell_length_a   5.09510709
_cell_length_b   10.21706401
_cell_length_c   5.15816182
_cell_angle_alpha   90.00295816
_cell_angle_beta   119.59712169
_cell_angle_gamma   89.99466281
_symmetry_Int_Tables_number   1
_chemical_formula_structural   Cu2NiC8
_chemical_formula_sum   'Cu4 Ni2 C16'
_cell_volume   233.48223290
_cell_formula_units_Z   2
loop_
 _symmetry_equiv_pos_site_id
 _symmetry_equiv_pos_as_xyz
  1  'x, y, z'
loop_
 _atom_site_type_symbol
 _atom_site_label
 _atom_site_symmetry_multiplicity
 _atom_site_fract_x
 _atom_site_fract_y
 _atom_site_fract_z
 _atom_site_occupancy
  C  C0  1  0.14898600  0.75003000  0.49999700  1
  C  C1  1  0.35101500  0.24997200  0.50000800  1
  C  C2  1  0.64898600  0.75002100  0.50000500  1
  C  C3  1  0.85101300  0.24997500  0.50001400  1
  Ni  Ni4  1  0.49956700  0.50000400  0.99911500  1
  Ni  Ni5  1  0.99953200  0.99999800  0.99909300  1
  Cu  Cu6  1  0.66596200  0.99999900  0.33192900  1
  Cu  Cu7  1  0.83490200  0.50000700  0.66974300  1
  Cu  Cu8  1  0.16594600  0.49999800  0.33189500  1
  Cu  Cu9  1  0.33484800  0.99999700  0.66972700  1
  C  C10  1  0.18608600  0.59661000  0.99996500  1
  C  C11  1  0.31382300  0.09656300  0.99990000  1
  C  C12  1  0.68608600  0.90343900  0.99993900  1
  C  C13  1  0.81384800  0.40339300  0.99988400  1
  C  C14  1  0.00914100  0.10639200  0.34014600  1
  C  C15  1  0.99164900  0.89258300  0.65954900  1
  C  C16  1  0.16798500  0.39256800  0.65956000  1
  C  C17  1  0.49159900  0.60740300  0.65956500  1
  C  C18  1  0.33099400  0.89361200  0.34015200  1
  C  C19  1  0.50921500  0.39361900  0.34013700  1
  C  C20  1  0.83092700  0.60638900  0.34013400  1
  C  C21  1  0.66789100  0.10742800  0.65954400  1
