# generated using pymatgen
data_CuNiC10
_symmetry_space_group_name_H-M   'P 1'
_cell_length_a   8.52223921
_cell_length_b   8.52223921
_cell_length_c   8.52223932
_cell_angle_alpha   61.42866991
_cell_angle_beta   61.42866991
_cell_angle_gamma   61.42866818
_symmetry_Int_Tables_number   1
_chemical_formula_structural   CuNiC10
_chemical_formula_sum   'Cu3 Ni3 C30'
_cell_volume   451.71242585
_cell_formula_units_Z   3
loop_
 _symmetry_equiv_pos_site_id
 _symmetry_equiv_pos_as_xyz
  1  'x, y, z'
loop_
 _atom_site_type_symbol
 _atom_site_label
 _atom_site_symmetry_multiplicity
 _atom_site_fract_x
 _atom_site_fract_y
 _atom_site_fract_z
 _atom_site_occupancy
  Ni  Ni0  1  0.35681200  0.35681200  0.35681200  1
  Ni  Ni1  1  0.14134600  0.14134600  0.14134600  1
  Ni  Ni2  1  0.64407800  0.64407800  0.64407800  1
  Cu  Cu3  1  0.99667200  0.99667200  0.99667200  1
  Cu  Cu4  1  0.85789700  0.85789700  0.85789700  1
  Cu  Cu5  1  0.49886700  0.49886700  0.49886700  1
  C  C6  1  0.75313000  0.04389200  0.45785600  1
  C  C7  1  0.04389200  0.45785600  0.75313000  1
  C  C8  1  0.45785600  0.75313000  0.04389200  1
  C  C9  1  0.54089500  0.25201800  0.95655000  1
  C  C10  1  0.95655000  0.54089500  0.25201800  1
  C  C11  1  0.25201800  0.95655000  0.54089500  1
  C  C12  1  0.87978100  0.50397400  0.68664400  1
  C  C13  1  0.50397400  0.68664400  0.87978100  1
  C  C14  1  0.68664400  0.87978100  0.50397400  1
  C  C15  1  0.90887100  0.05666600  0.25849600  1
  C  C16  1  0.81685200  0.01268900  0.60958000  1
  C  C17  1  0.59154400  0.24018600  0.43363000  1
  C  C18  1  0.05666600  0.25849600  0.90887100  1
  C  C19  1  0.24018600  0.43363000  0.59154400  1
  C  C20  1  0.37979800  0.18458200  0.00106600  1
  C  C21  1  0.43363000  0.59154400  0.24018600  1
  C  C22  1  0.73377300  0.09804100  0.94845800  1
  C  C23  1  0.00106600  0.37979800  0.18458200  1
  C  C24  1  0.01268900  0.60958000  0.81685200  1
  C  C25  1  0.25849600  0.90887100  0.05666600  1
  C  C26  1  0.55194600  0.41275000  0.76125500  1
  C  C27  1  0.60958000  0.81685200  0.01268900  1
  C  C28  1  0.76125500  0.55194600  0.41275000  1
  C  C29  1  0.94845800  0.73377300  0.09804100  1
  C  C30  1  0.41275000  0.76125500  0.55194600  1
  C  C31  1  0.18458200  0.00106600  0.37979800  1
  C  C32  1  0.09804100  0.94845800  0.73377300  1
  C  C33  1  0.32947700  0.11364300  0.48627600  1
  C  C34  1  0.48627600  0.32947700  0.11364300  1
  C  C35  1  0.11364300  0.48627600  0.32947700  1
