# generated using pymatgen
data_Cu5NiC2
_symmetry_space_group_name_H-M   'P 1'
_cell_length_a   9.51234400
_cell_length_b   9.52013100
_cell_length_c   11.39733000
_cell_angle_alpha   90.00000000
_cell_angle_beta   90.00000000
_cell_angle_gamma   90.00000000
_symmetry_Int_Tables_number   1
_chemical_formula_structural   Cu5NiC2
_chemical_formula_sum   'Cu40 Ni8 C16'
_cell_volume   1032.12808347
_cell_formula_units_Z   8
loop_
 _symmetry_equiv_pos_site_id
 _symmetry_equiv_pos_as_xyz
  1  'x, y, z'
loop_
 _atom_site_type_symbol
 _atom_site_label
 _atom_site_symmetry_multiplicity
 _atom_site_fract_x
 _atom_site_fract_y
 _atom_site_fract_z
 _atom_site_occupancy
  C  C0  1  0.00132700  0.23398500  0.66695600  1
  C  C1  1  0.49867300  0.26601500  0.16695600  1
  C  C2  1  0.50132700  0.76601500  0.33304400  1
  C  C3  1  0.99867300  0.73398500  0.83304400  1
  C  C4  1  0.99867300  0.76601500  0.33304400  1
  C  C5  1  0.50132700  0.73398500  0.83304400  1
  C  C6  1  0.49867300  0.23398500  0.66695600  1
  C  C7  1  0.00132700  0.26601500  0.16695600  1
  C  C8  1  0.25000000  0.06413900  0.90342600  1
  C  C9  1  0.25000000  0.43586100  0.40342600  1
  C  C10  1  0.75000000  0.93586100  0.09657400  1
  C  C11  1  0.75000000  0.56413900  0.59657400  1
  C  C12  1  0.25000000  0.41112700  0.89979000  1
  C  C13  1  0.25000000  0.08887300  0.39979000  1
  C  C14  1  0.75000000  0.58887300  0.10021000  1
  C  C15  1  0.75000000  0.91112700  0.60021000  1
  Ni  Ni16  1  0.25000000  0.23618600  0.83712500  1
  Ni  Ni17  1  0.25000000  0.26381400  0.33712500  1
  Ni  Ni18  1  0.75000000  0.76381400  0.16287500  1
  Ni  Ni19  1  0.75000000  0.73618600  0.66287500  1
  Ni  Ni20  1  0.25000000  0.75358200  0.66986100  1
  Ni  Ni21  1  0.25000000  0.74641800  0.16986100  1
  Ni  Ni22  1  0.75000000  0.24641800  0.33013900  1
  Ni  Ni23  1  0.75000000  0.25358200  0.83013900  1
  Cu  Cu24  1  0.25000000  0.88509500  0.95112000  1
  Cu  Cu25  1  0.25000000  0.61490500  0.45112000  1
  Cu  Cu26  1  0.75000000  0.11490500  0.04888000  1
  Cu  Cu27  1  0.75000000  0.38509500  0.54888000  1
  Cu  Cu28  1  0.25000000  0.36186100  0.05110500  1
  Cu  Cu29  1  0.25000000  0.13813900  0.55110500  1
  Cu  Cu30  1  0.75000000  0.63813900  0.94889500  1
  Cu  Cu31  1  0.75000000  0.86186100  0.44889500  1
  Cu  Cu32  1  0.11629500  0.01388800  0.80042600  1
  Cu  Cu33  1  0.38370500  0.48611200  0.30042600  1
  Cu  Cu34  1  0.61629500  0.98611200  0.19957400  1
  Cu  Cu35  1  0.88370500  0.51388800  0.69957400  1
  Cu  Cu36  1  0.88370500  0.98611200  0.19957400  1
  Cu  Cu37  1  0.61629500  0.51388800  0.69957400  1
  Cu  Cu38  1  0.38370500  0.01388800  0.80042600  1
  Cu  Cu39  1  0.11629500  0.48611200  0.30042600  1
  Cu  Cu40  1  0.11727000  0.10253000  0.00785900  1
  Cu  Cu41  1  0.38273000  0.39747000  0.50785900  1
  Cu  Cu42  1  0.61727000  0.89747000  0.99214100  1
  Cu  Cu43  1  0.88273000  0.60253000  0.49214100  1
  Cu  Cu44  1  0.88273000  0.89747000  0.99214100  1
  Cu  Cu45  1  0.61727000  0.60253000  0.49214100  1
  Cu  Cu46  1  0.38273000  0.10253000  0.00785900  1
  Cu  Cu47  1  0.11727000  0.39747000  0.50785900  1
  Cu  Cu48  1  0.06255300  0.41459800  0.90235300  1
  Cu  Cu49  1  0.43744700  0.08540200  0.40235300  1
  Cu  Cu50  1  0.56255300  0.58540200  0.09764700  1
  Cu  Cu51  1  0.93744700  0.91459800  0.59764700  1
  Cu  Cu52  1  0.93744700  0.58540200  0.09764700  1
  Cu  Cu53  1  0.56255300  0.91459800  0.59764700  1
  Cu  Cu54  1  0.43744700  0.41459800  0.90235300  1
  Cu  Cu55  1  0.06255300  0.08540200  0.40235300  1
  Cu  Cu56  1  0.25000000  0.47386300  0.75207600  1
  Cu  Cu57  1  0.25000000  0.02613700  0.25207600  1
  Cu  Cu58  1  0.75000000  0.52613700  0.24792400  1
  Cu  Cu59  1  0.75000000  0.97386300  0.74792400  1
  Cu  Cu60  1  0.25000000  0.59167100  0.94390700  1
  Cu  Cu61  1  0.25000000  0.90832900  0.44390700  1
  Cu  Cu62  1  0.75000000  0.40832900  0.05609300  1
  Cu  Cu63  1  0.75000000  0.09167100  0.55609300  1
