# generated using pymatgen
data_Cu4Ni4C
_symmetry_space_group_name_H-M   'P 1'
_cell_length_a   9.45793500
_cell_length_b   13.13229900
_cell_length_c   17.77412691
_cell_angle_alpha   83.70481464
_cell_angle_beta   90.00000000
_cell_angle_gamma   90.00000000
_symmetry_Int_Tables_number   1
_chemical_formula_structural   Cu4Ni4C
_chemical_formula_sum   'Cu48 Ni48 C12'
_cell_volume   2194.31370905
_cell_formula_units_Z   12
loop_
 _symmetry_equiv_pos_site_id
 _symmetry_equiv_pos_as_xyz
  1  'x, y, z'
loop_
 _atom_site_type_symbol
 _atom_site_label
 _atom_site_symmetry_multiplicity
 _atom_site_fract_x
 _atom_site_fract_y
 _atom_site_fract_z
 _atom_site_occupancy
  C  C0  1  0.74510300  0.18784500  0.28121000  1
  C  C1  1  0.24510300  0.81215500  0.21879000  1
  C  C2  1  0.25489700  0.81215500  0.71879000  1
  C  C3  1  0.75489700  0.18784500  0.78121000  1
  C  C4  1  0.87467000  0.27500100  0.40366000  1
  C  C5  1  0.37467000  0.72499900  0.09634000  1
  C  C6  1  0.12533000  0.72499900  0.59634000  1
  C  C7  1  0.62533000  0.27500100  0.90366000  1
  C  C8  1  0.49594800  0.25696800  0.34992200  1
  C  C9  1  0.99594800  0.74303200  0.15007800  1
  C  C10  1  0.50405200  0.74303200  0.65007800  1
  C  C11  1  0.00405200  0.25696800  0.84992200  1
  Ni  Ni12  1  0.62712000  0.13764700  0.20464400  1
  Ni  Ni13  1  0.12712000  0.86235300  0.29535600  1
  Ni  Ni14  1  0.37288000  0.86235300  0.79535600  1
  Ni  Ni15  1  0.87288000  0.13764700  0.70464400  1
  Ni  Ni16  1  0.93184200  0.15268500  0.24976000  1
  Ni  Ni17  1  0.43184200  0.84731500  0.25024000  1
  Ni  Ni18  1  0.06815800  0.84731500  0.75024000  1
  Ni  Ni19  1  0.56815800  0.15268500  0.74976000  1
  Ni  Ni20  1  0.72715000  0.06492900  0.35345900  1
  Ni  Ni21  1  0.22715000  0.93507100  0.14654100  1
  Ni  Ni22  1  0.27285000  0.93507100  0.64654100  1
  Ni  Ni23  1  0.77285000  0.06492900  0.85345900  1
  Ni  Ni24  1  0.75765000  0.32595500  0.22881200  1
  Ni  Ni25  1  0.25765000  0.67404500  0.27118800  1
  Ni  Ni26  1  0.24235000  0.67404500  0.77118800  1
  Ni  Ni27  1  0.74235000  0.32595500  0.72881200  1
  Ni  Ni28  1  0.91284000  0.34386800  0.49138700  1
  Ni  Ni29  1  0.41284000  0.65613200  0.00861300  1
  Ni  Ni30  1  0.08716000  0.65613200  0.50861300  1
  Ni  Ni31  1  0.58716000  0.34386800  0.99138700  1
  Ni  Ni32  1  0.99125300  0.36000700  0.33974800  1
  Ni  Ni33  1  0.49125300  0.63999300  0.16025200  1
  Ni  Ni34  1  0.00874700  0.63999300  0.66025200  1
  Ni  Ni35  1  0.50874700  0.36000700  0.83974800  1
  Ni  Ni36  1  0.98568800  0.16090400  0.43691200  1
  Ni  Ni37  1  0.48568800  0.83909600  0.06308800  1
  Ni  Ni38  1  0.01431200  0.83909600  0.56308800  1
  Ni  Ni39  1  0.51431200  0.16090400  0.93691200  1
  Ni  Ni40  1  0.36249900  0.31284700  0.41547700  1
  Ni  Ni41  1  0.86249900  0.68715300  0.08452300  1
  Ni  Ni42  1  0.63750100  0.68715300  0.58452300  1
  Ni  Ni43  1  0.13750100  0.31284700  0.91547700  1
  Ni  Ni44  1  0.42543800  0.33242900  0.26273100  1
  Ni  Ni45  1  0.92543800  0.66757100  0.23726900  1
  Ni  Ni46  1  0.57456200  0.66757100  0.73726900  1
  Ni  Ni47  1  0.07456200  0.33242900  0.76273100  1
  Ni  Ni48  1  0.40855400  0.12919700  0.35505500  1
  Ni  Ni49  1  0.90855400  0.87080300  0.14494500  1
  Ni  Ni50  1  0.59144600  0.87080300  0.64494500  1
  Ni  Ni51  1  0.09144600  0.12919700  0.85505500  1
  Ni  Ni52  1  0.60328300  0.19040100  0.55477300  1
  Ni  Ni53  1  0.10328300  0.80959900  0.94522700  1
  Ni  Ni54  1  0.39671700  0.80959900  0.44522700  1
  Ni  Ni55  1  0.89671700  0.19040100  0.05477300  1
  Ni  Ni56  1  0.62843200  0.51198500  0.40099800  1
  Ni  Ni57  1  0.12843200  0.48801500  0.09900200  1
  Ni  Ni58  1  0.37156800  0.48801500  0.59900200  1
  Ni  Ni59  1  0.87156800  0.51198500  0.90099800  1
  Cu  Cu60  1  0.55520800  0.10908000  0.15819000  1
  Cu  Cu61  1  0.05520800  0.89092000  0.34181000  1
  Cu  Cu62  1  0.44479200  0.89092000  0.84181000  1
  Cu  Cu63  1  0.94479200  0.10908000  0.65819000  1
  Cu  Cu64  1  0.04553000  0.13263500  0.23151200  1
  Cu  Cu65  1  0.54553000  0.86736500  0.26848800  1
  Cu  Cu66  1  0.95447000  0.86736500  0.76848800  1
  Cu  Cu67  1  0.45447000  0.13263500  0.73151200  1
  Cu  Cu68  1  0.71855500  0.99029700  0.39481200  1
  Cu  Cu69  1  0.21855500  0.00970300  0.10518800  1
  Cu  Cu70  1  0.28144500  0.00970300  0.60518800  1
  Cu  Cu71  1  0.78144500  0.99029700  0.89481200  1
  Cu  Cu72  1  0.77134000  0.40567900  0.19408800  1
  Cu  Cu73  1  0.27134000  0.59432100  0.30591200  1
  Cu  Cu74  1  0.22866000  0.59432100  0.80591200  1
  Cu  Cu75  1  0.72866000  0.40567900  0.69408800  1
  Cu  Cu76  1  0.93091500  0.38609000  0.54493900  1
  Cu  Cu77  1  0.43091500  0.61391000  0.95506100  1
  Cu  Cu78  1  0.06908500  0.61391000  0.45506100  1
  Cu  Cu79  1  0.56908500  0.38609000  0.04493900  1
  Cu  Cu80  1  0.07700300  0.40370100  0.30117000  1
  Cu  Cu81  1  0.57700300  0.59629900  0.19883000  1
  Cu  Cu82  1  0.92299700  0.59629900  0.69883000  1
  Cu  Cu83  1  0.42299700  0.40370100  0.80117000  1
  Cu  Cu84  1  0.06976600  0.09726700  0.45347300  1
  Cu  Cu85  1  0.56976600  0.90273300  0.04652700  1
  Cu  Cu86  1  0.93023400  0.90273300  0.54652700  1
  Cu  Cu87  1  0.43023400  0.09726700  0.95347300  1
  Cu  Cu88  1  0.28496300  0.34807100  0.45661400  1
  Cu  Cu89  1  0.78496300  0.65192900  0.04338600  1
  Cu  Cu90  1  0.71503700  0.65192900  0.54338600  1
  Cu  Cu91  1  0.21503700  0.34807100  0.95661400  1
  Cu  Cu92  1  0.37096300  0.37048200  0.20762300  1
  Cu  Cu93  1  0.87096300  0.62951800  0.29237700  1
  Cu  Cu94  1  0.62903700  0.62951800  0.79237700  1
  Cu  Cu95  1  0.12903700  0.37048200  0.70762300  1
  Cu  Cu96  1  0.34555000  0.05308600  0.35207800  1
  Cu  Cu97  1  0.84555000  0.94691400  0.14792200  1
  Cu  Cu98  1  0.65445000  0.94691400  0.64792200  1
  Cu  Cu99  1  0.15445000  0.05308600  0.85207800  1
  Cu  Cu100  1  0.63670900  0.20210500  0.49209800  1
  Cu  Cu101  1  0.13670900  0.79789500  0.00790200  1
  Cu  Cu102  1  0.36329100  0.79789500  0.50790200  1
  Cu  Cu103  1  0.86329100  0.20210500  0.99209800  1
  Cu  Cu104  1  0.64986300  0.43006400  0.38660500  1
  Cu  Cu105  1  0.14986300  0.56993600  0.11339500  1
  Cu  Cu106  1  0.35013700  0.56993600  0.61339500  1
  Cu  Cu107  1  0.85013700  0.43006400  0.88660500  1
