# generated using pymatgen
data_Cu2Ni8C13
_symmetry_space_group_name_H-M   'P 1'
_cell_length_a   5.50775307
_cell_length_b   5.50775307
_cell_length_c   13.89554530
_cell_angle_alpha   82.39891352
_cell_angle_beta   82.39891352
_cell_angle_gamma   78.20564042
_symmetry_Int_Tables_number   1
_chemical_formula_structural   Cu2Ni8C13
_chemical_formula_sum   'Cu4 Ni16 C26'
_cell_volume   406.58812745
_cell_formula_units_Z   2
loop_
 _symmetry_equiv_pos_site_id
 _symmetry_equiv_pos_as_xyz
  1  'x, y, z'
loop_
 _atom_site_type_symbol
 _atom_site_label
 _atom_site_symmetry_multiplicity
 _atom_site_fract_x
 _atom_site_fract_y
 _atom_site_fract_z
 _atom_site_occupancy
  C  C0  1  0.41314900  0.74917100  0.55768100  1
  C  C1  1  0.25082900  0.58685100  0.94231900  1
  C  C2  1  0.74917100  0.41314900  0.05768100  1
  C  C3  1  0.58685100  0.25082900  0.44231900  1
  C  C4  1  0.04487300  0.95512700  0.75000000  1
  C  C5  1  0.95512700  0.04487300  0.25000000  1
  Ni  Ni6  1  0.76788200  0.84232300  0.94043600  1
  Ni  Ni7  1  0.87779300  0.80833900  0.54749200  1
  Ni  Ni8  1  0.84232300  0.76788200  0.44043600  1
  Ni  Ni9  1  0.80833900  0.87779300  0.04749200  1
  Ni  Ni10  1  0.77840900  0.47122200  0.87391100  1
  Ni  Ni11  1  0.47122200  0.77840900  0.37391100  1
  Ni  Ni12  1  0.74268600  0.36771300  0.62015000  1
  Ni  Ni13  1  0.63228700  0.25731400  0.87985000  1
  Ni  Ni14  1  0.36771300  0.74268600  0.12015000  1
  Ni  Ni15  1  0.25731400  0.63228700  0.37985000  1
  Ni  Ni16  1  0.52877800  0.22159100  0.62608900  1
  Ni  Ni17  1  0.22159100  0.52877800  0.12608900  1
  Ni  Ni18  1  0.19166100  0.12220700  0.95250800  1
  Ni  Ni19  1  0.15767700  0.23211800  0.55956400  1
  Ni  Ni20  1  0.12220700  0.19166100  0.45250800  1
  Ni  Ni21  1  0.23211800  0.15767700  0.05956400  1
  Cu  Cu22  1  0.48284500  0.95812200  0.78839800  1
  Cu  Cu23  1  0.95812200  0.48284500  0.28839800  1
  Cu  Cu24  1  0.04187800  0.51715500  0.71160200  1
  Cu  Cu25  1  0.51715500  0.04187800  0.21160200  1
  C  C26  1  0.85457400  0.75916400  0.99732300  1
  C  C27  1  0.68506900  0.99136000  0.81848400  1
  C  C28  1  0.75916400  0.85457400  0.49732300  1
  C  C29  1  0.99136000  0.68506900  0.31848400  1
  C  C30  1  0.45970800  0.94723900  0.69807500  1
  C  C31  1  0.28698600  0.93950000  0.85215400  1
  C  C32  1  0.94723900  0.45970800  0.19807500  1
  C  C33  1  0.63131100  0.41041500  0.91043300  1
  C  C34  1  0.93950000  0.28698600  0.35215400  1
  C  C35  1  0.41041500  0.63131100  0.41043300  1
  C  C36  1  0.58958500  0.36868900  0.58956700  1
  C  C37  1  0.06050000  0.71301400  0.64784600  1
  C  C38  1  0.36868900  0.58958500  0.08956700  1
  C  C39  1  0.05276100  0.54029200  0.80192500  1
  C  C40  1  0.71301400  0.06050000  0.14784600  1
  C  C41  1  0.54029200  0.05276100  0.30192500  1
  C  C42  1  0.00864000  0.31493100  0.68151600  1
  C  C43  1  0.24083600  0.14542600  0.50267700  1
  C  C44  1  0.31493100  0.00864000  0.18151600  1
  C  C45  1  0.14542600  0.24083600  0.00267700  1
