# generated using pymatgen
data_Cu2(NiC3)3
_symmetry_space_group_name_H-M   'P 1'
_cell_length_a   6.98046163
_cell_length_b   6.98046163
_cell_length_c   9.50003100
_cell_angle_alpha   90.00000000
_cell_angle_beta   90.00000000
_cell_angle_gamma   119.99999653
_symmetry_Int_Tables_number   1
_chemical_formula_structural   Cu2(NiC3)3
_chemical_formula_sum   'Cu4 Ni6 C18'
_cell_volume   400.88883246
_cell_formula_units_Z   2
loop_
 _symmetry_equiv_pos_site_id
 _symmetry_equiv_pos_as_xyz
  1  'x, y, z'
loop_
 _atom_site_type_symbol
 _atom_site_label
 _atom_site_symmetry_multiplicity
 _atom_site_fract_x
 _atom_site_fract_y
 _atom_site_fract_z
 _atom_site_occupancy
  Ni  Ni0  1  0.20521400  0.92744100  0.25000000  1
  Ni  Ni1  1  0.07255900  0.27777300  0.25000000  1
  Ni  Ni2  1  0.27777300  0.20521400  0.75000000  1
  Ni  Ni3  1  0.72222700  0.79478600  0.25000000  1
  Ni  Ni4  1  0.92744100  0.72222700  0.75000000  1
  Ni  Ni5  1  0.79478600  0.07255900  0.75000000  1
  Cu  Cu6  1  0.33333300  0.66666700  0.99118800  1
  Cu  Cu7  1  0.33333300  0.66666700  0.50881200  1
  Cu  Cu8  1  0.66666700  0.33333300  0.49118800  1
  Cu  Cu9  1  0.66666700  0.33333300  0.00881200  1
  C  C10  1  0.18160600  0.93632300  0.75000000  1
  C  C11  1  0.32245200  0.90337300  0.10765500  1
  C  C12  1  0.32245200  0.90337300  0.39234500  1
  C  C13  1  0.09662700  0.41907800  0.10765500  1
  C  C14  1  0.09662700  0.41907800  0.39234500  1
  C  C15  1  0.06367700  0.24528300  0.75000000  1
  C  C16  1  0.24528300  0.18160600  0.25000000  1
  C  C17  1  0.58092200  0.67754800  0.10765500  1
  C  C18  1  0.58092200  0.67754800  0.39234500  1
  C  C19  1  0.41907800  0.32245200  0.60765500  1
  C  C20  1  0.41907800  0.32245200  0.89234500  1
  C  C21  1  0.75471700  0.81839400  0.75000000  1
  C  C22  1  0.93632300  0.75471700  0.25000000  1
  C  C23  1  0.90337300  0.58092200  0.60765500  1
  C  C24  1  0.90337300  0.58092200  0.89234500  1
  C  C25  1  0.67754800  0.09662700  0.60765500  1
  C  C26  1  0.67754800  0.09662700  0.89234500  1
  C  C27  1  0.81839400  0.06367700  0.25000000  1
