# generated using pymatgen
data_Cu3Ni2C13
_symmetry_space_group_name_H-M   'P 1'
_cell_length_a   8.76623200
_cell_length_b   8.87448000
_cell_length_c   12.22419500
_cell_angle_alpha   90.00000000
_cell_angle_beta   90.00000000
_cell_angle_gamma   90.00000000
_symmetry_Int_Tables_number   1
_chemical_formula_structural   Cu3Ni2C13
_chemical_formula_sum   'Cu12 Ni8 C52'
_cell_volume   950.99042501
_cell_formula_units_Z   4
loop_
 _symmetry_equiv_pos_site_id
 _symmetry_equiv_pos_as_xyz
  1  'x, y, z'
loop_
 _atom_site_type_symbol
 _atom_site_label
 _atom_site_symmetry_multiplicity
 _atom_site_fract_x
 _atom_site_fract_y
 _atom_site_fract_z
 _atom_site_occupancy
  C  C0  1  0.53387600  0.27132800  0.82267100  1
  C  C1  1  0.46612400  0.72867200  0.32267100  1
  C  C2  1  0.03387600  0.22867200  0.32267100  1
  C  C3  1  0.96612400  0.77132800  0.82267100  1
  Ni  Ni4  1  0.50219900  0.53501500  0.11766900  1
  Ni  Ni5  1  0.49558800  0.94792400  0.87957300  1
  Ni  Ni6  1  0.50441200  0.05207600  0.37957300  1
  Ni  Ni7  1  0.49780100  0.46498500  0.61766900  1
  Ni  Ni8  1  0.99558800  0.55207600  0.37957300  1
  Ni  Ni9  1  0.00219900  0.96498500  0.61766900  1
  Ni  Ni10  1  0.00441200  0.44792400  0.87957300  1
  Ni  Ni11  1  0.99780100  0.03501500  0.11766900  1
  Cu  Cu12  1  0.70601200  0.75403100  0.50109700  1
  Cu  Cu13  1  0.64203900  0.89694600  0.14720300  1
  Cu  Cu14  1  0.64904700  0.60315500  0.85293600  1
  Cu  Cu15  1  0.35095300  0.39684500  0.35293600  1
  Cu  Cu16  1  0.35796100  0.10305400  0.64720300  1
  Cu  Cu17  1  0.29398800  0.24596900  0.00109700  1
  Cu  Cu18  1  0.20601200  0.74596900  0.00109700  1
  Cu  Cu19  1  0.14904700  0.89684500  0.35293600  1
  Cu  Cu20  1  0.14203900  0.60305400  0.64720300  1
  Cu  Cu21  1  0.85095300  0.10315500  0.85293600  1
  Cu  Cu22  1  0.85796100  0.39694600  0.14720300  1
  Cu  Cu23  1  0.79398800  0.25403100  0.50109700  1
  C  C24  1  0.70071600  0.15574100  0.42096000  1
  C  C25  1  0.69626400  0.35542500  0.57403000  1
  C  C26  1  0.68321700  0.40105700  0.16271100  1
  C  C27  1  0.67480500  0.09738400  0.83950700  1
  C  C28  1  0.60054300  0.92225300  0.02712000  1
  C  C29  1  0.60359500  0.56735100  0.97037400  1
  C  C30  1  0.58259000  0.73803700  0.18492900  1
  C  C31  1  0.60033300  0.76155900  0.81670800  1
  C  C32  1  0.56541100  0.01785100  0.21944600  1
  C  C33  1  0.57490000  0.47904500  0.77956600  1
  C  C34  1  0.60559600  0.65783100  0.57609500  1
  C  C35  1  0.59748100  0.84487900  0.42413600  1
  C  C36  1  0.39440400  0.34216900  0.07609500  1
  C  C37  1  0.40251900  0.15512100  0.92413600  1
  C  C38  1  0.43458900  0.98214900  0.71944600  1
  C  C39  1  0.42510000  0.52095500  0.27956600  1
  C  C40  1  0.41741000  0.26196300  0.68492900  1
  C  C41  1  0.39966700  0.23844100  0.31670800  1
  C  C42  1  0.39640500  0.43264900  0.47037400  1
  C  C43  1  0.39945700  0.07774700  0.52712000  1
  C  C44  1  0.32519500  0.90261600  0.33950700  1
  C  C45  1  0.31678300  0.59894300  0.66271100  1
  C  C46  1  0.30373600  0.64457500  0.07403000  1
  C  C47  1  0.29928400  0.84425900  0.92096000  1
  C  C48  1  0.20071600  0.34425900  0.92096000  1
  C  C49  1  0.19626400  0.14457500  0.07403000  1
  C  C50  1  0.17480500  0.40261600  0.33950700  1
  C  C51  1  0.18321700  0.09894300  0.66271100  1
  C  C52  1  0.10359500  0.93264900  0.47037400  1
  C  C53  1  0.10054300  0.57774700  0.52712000  1
  C  C54  1  0.10033300  0.73844100  0.31670800  1
  C  C55  1  0.08259000  0.76196300  0.68492900  1
  C  C56  1  0.06541100  0.48214900  0.71944600  1
  C  C57  1  0.07490000  0.02095500  0.27956600  1
  C  C58  1  0.10559600  0.84216900  0.07609500  1
  C  C59  1  0.09748100  0.65512100  0.92413600  1
  C  C60  1  0.90251900  0.34487900  0.42413600  1
  C  C61  1  0.89440400  0.15783100  0.57609500  1
  C  C62  1  0.93458900  0.51785100  0.21944600  1
  C  C63  1  0.92510000  0.97904500  0.77956600  1
  C  C64  1  0.91741000  0.23803700  0.18492900  1
  C  C65  1  0.89966700  0.26155900  0.81670800  1
  C  C66  1  0.89945700  0.42225300  0.02712000  1
  C  C67  1  0.89640500  0.06735100  0.97037400  1
  C  C68  1  0.81678300  0.90105700  0.16271100  1
  C  C69  1  0.82519500  0.59738400  0.83950700  1
  C  C70  1  0.79928400  0.65574100  0.42096000  1
  C  C71  1  0.80373600  0.85542500  0.57403000  1
