# generated using pymatgen
data_Cu5Ni2C19
_symmetry_space_group_name_H-M   'P 1'
_cell_length_a   9.39337000
_cell_length_b   7.44765500
_cell_length_c   31.12220177
_cell_angle_alpha   77.18034618
_cell_angle_beta   90.00000000
_cell_angle_gamma   90.00000000
_symmetry_Int_Tables_number   1
_chemical_formula_structural   Cu5Ni2C19
_chemical_formula_sum   'Cu10 Ni4 C38'
_cell_volume   2122.99298204
_cell_formula_units_Z   2
loop_
 _symmetry_equiv_pos_site_id
 _symmetry_equiv_pos_as_xyz
  1  'x, y, z'
loop_
 _atom_site_type_symbol
 _atom_site_label
 _atom_site_symmetry_multiplicity
 _atom_site_fract_x
 _atom_site_fract_y
 _atom_site_fract_z
 _atom_site_occupancy
  Ni  Ni0  1  0.98083200  0.31292900  0.20668700  1
  Ni  Ni1  1  0.48083200  0.68707100  0.29331300  1
  Ni  Ni2  1  0.51916800  0.31292900  0.70668700  1
  Ni  Ni3  1  0.01916800  0.68707100  0.79331300  1
  Cu  Cu4  1  0.33249200  0.42887200  0.06913500  1
  Cu  Cu5  1  0.85931700  0.87632000  0.63591100  1
  Cu  Cu6  1  0.50000000  0.00000000  0.50000000  1
  Cu  Cu7  1  0.83249200  0.57112800  0.43086500  1
  Cu  Cu8  1  0.64068300  0.87632000  0.13591100  1
  Cu  Cu9  1  0.00000000  0.00000000  0.00000000  1
  Cu  Cu10  1  0.35931700  0.12368000  0.86408900  1
  Cu  Cu11  1  0.16750800  0.42887200  0.56913500  1
  Cu  Cu12  1  0.14068300  0.12368000  0.36408900  1
  Cu  Cu13  1  0.66750800  0.57112800  0.93086500  1
  C  C14  1  0.50000000  0.50000000  0.00000000  1
  C  C15  1  0.76833400  0.65966200  0.85116500  1
  C  C16  1  0.66249300  0.92309700  0.57134900  1
  C  C17  1  0.05860500  0.81961300  0.69694000  1
  C  C18  1  0.25648600  0.85216800  0.83242600  1
  C  C19  1  0.67803100  0.26416500  0.45819300  1
  C  C20  1  0.87103300  0.74689500  0.96550700  1
  C  C21  1  0.31517200  0.33855600  0.30706200  1
  C  C22  1  0.53588800  0.60157700  0.10397600  1
  C  C23  1  0.03240600  0.10679000  0.58428400  1
  C  C24  1  0.03588800  0.39842300  0.39602400  1
  C  C25  1  0.81517200  0.66144400  0.19293800  1
  C  C26  1  0.17803100  0.73583500  0.04180700  1
  C  C27  1  0.53240600  0.89321000  0.91571600  1
  C  C28  1  0.37103300  0.25310500  0.53449300  1
  C  C29  1  0.75648600  0.14783200  0.66757400  1
  C  C30  1  0.55860500  0.18038700  0.80306000  1
  C  C31  1  0.73166600  0.65966200  0.35116500  1
  C  C32  1  0.83750700  0.92309700  0.07134900  1
  C  C33  1  0.16249300  0.07690300  0.92865100  1
  C  C34  1  0.26833400  0.34033800  0.64883500  1
  C  C35  1  0.44139500  0.81961300  0.19694000  1
  C  C36  1  0.00000000  0.50000000  0.50000000  1
  C  C37  1  0.24351400  0.85216800  0.33242600  1
  C  C38  1  0.62896700  0.74689500  0.46550700  1
  C  C39  1  0.46759400  0.10679000  0.08428400  1
  C  C40  1  0.82196900  0.26416500  0.95819300  1
  C  C41  1  0.18482800  0.33855600  0.80706200  1
  C  C42  1  0.96411200  0.60157700  0.60397600  1
  C  C43  1  0.96759400  0.89321000  0.41571600  1
  C  C44  1  0.46411200  0.39842300  0.89602400  1
  C  C45  1  0.68482800  0.66144400  0.69293800  1
  C  C46  1  0.12896700  0.25310500  0.03449300  1
  C  C47  1  0.32196900  0.73583500  0.54180700  1
  C  C48  1  0.74351400  0.14783200  0.16757400  1
  C  C49  1  0.94139500  0.18038700  0.30306000  1
  C  C50  1  0.33750700  0.07690300  0.42865100  1
  C  C51  1  0.23166600  0.34033800  0.14883500  1
