# generated using pymatgen
data_Cu16Ni2C11
_symmetry_space_group_name_H-M   'P 1'
_cell_length_a   7.30348900
_cell_length_b   7.30348900
_cell_length_c   10.54835000
_cell_angle_alpha   90.00000000
_cell_angle_beta   90.00000000
_cell_angle_gamma   90.00000000
_symmetry_Int_Tables_number   1
_chemical_formula_structural   Cu16Ni2C11
_chemical_formula_sum   'Cu32 Ni4 C22'
_cell_volume   562.65902653
_cell_formula_units_Z   2
loop_
 _symmetry_equiv_pos_site_id
 _symmetry_equiv_pos_as_xyz
  1  'x, y, z'
loop_
 _atom_site_type_symbol
 _atom_site_label
 _atom_site_symmetry_multiplicity
 _atom_site_fract_x
 _atom_site_fract_y
 _atom_site_fract_z
 _atom_site_occupancy
  C  C0  1  0.50000000  0.50000000  0.00000000  1
  C  C1  1  0.00000000  0.00000000  0.50000000  1
  Ni  Ni2  1  0.50000000  0.00000000  0.76136200  1
  Ni  Ni3  1  0.50000000  0.00000000  0.26136200  1
  Ni  Ni4  1  0.00000000  0.50000000  0.23863800  1
  Ni  Ni5  1  0.00000000  0.50000000  0.73863800  1
  Cu  Cu6  1  0.31162200  0.79633400  0.44391000  1
  Cu  Cu7  1  0.31162200  0.20366600  0.44391000  1
  Cu  Cu8  1  0.29633400  0.81162200  0.94391000  1
  Cu  Cu9  1  0.29633400  0.18837800  0.94391000  1
  Cu  Cu10  1  0.34717700  0.00000000  0.17902900  1
  Cu  Cu11  1  0.38867100  0.50000000  0.74991200  1
  Cu  Cu12  1  0.50000000  0.38867100  0.25008800  1
  Cu  Cu13  1  0.50000000  0.61132900  0.25008800  1
  Cu  Cu14  1  0.50000000  0.84717700  0.67902900  1
  Cu  Cu15  1  0.50000000  0.15282300  0.67902900  1
  Cu  Cu16  1  0.61132900  0.50000000  0.74991200  1
  Cu  Cu17  1  0.65282300  0.00000000  0.17902900  1
  Cu  Cu18  1  0.70366600  0.18837800  0.94391000  1
  Cu  Cu19  1  0.70366600  0.81162200  0.94391000  1
  Cu  Cu20  1  0.68837800  0.79633400  0.44391000  1
  Cu  Cu21  1  0.68837800  0.20366600  0.44391000  1
  Cu  Cu22  1  0.81162200  0.70366600  0.05609000  1
  Cu  Cu23  1  0.81162200  0.29633400  0.05609000  1
  Cu  Cu24  1  0.79633400  0.68837800  0.55609000  1
  Cu  Cu25  1  0.79633400  0.31162200  0.55609000  1
  Cu  Cu26  1  0.84717700  0.50000000  0.32097100  1
  Cu  Cu27  1  0.88867100  0.00000000  0.75008800  1
  Cu  Cu28  1  0.00000000  0.88867100  0.24991200  1
  Cu  Cu29  1  0.00000000  0.11132900  0.24991200  1
  Cu  Cu30  1  0.00000000  0.34717700  0.82097100  1
  Cu  Cu31  1  0.00000000  0.65282300  0.82097100  1
  Cu  Cu32  1  0.11132900  0.00000000  0.75008800  1
  Cu  Cu33  1  0.15282300  0.50000000  0.32097100  1
  Cu  Cu34  1  0.20366600  0.68837800  0.55609000  1
  Cu  Cu35  1  0.20366600  0.31162200  0.55609000  1
  Cu  Cu36  1  0.18837800  0.70366600  0.05609000  1
  Cu  Cu37  1  0.18837800  0.29633400  0.05609000  1
  C  C38  1  0.29736600  0.29736600  0.00000000  1
  C  C39  1  0.29736600  0.70263400  0.00000000  1
  C  C40  1  0.32126900  0.00000000  0.83816000  1
  C  C41  1  0.50000000  0.50000000  0.80367300  1
  C  C42  1  0.50000000  0.50000000  0.19632700  1
  C  C43  1  0.50000000  0.82126900  0.33816000  1
  C  C44  1  0.50000000  0.17873100  0.33816000  1
  C  C45  1  0.67873100  0.00000000  0.83816000  1
  C  C46  1  0.70263400  0.29736600  0.00000000  1
  C  C47  1  0.70263400  0.70263400  0.00000000  1
  C  C48  1  0.79736600  0.79736600  0.50000000  1
  C  C49  1  0.79736600  0.20263400  0.50000000  1
  C  C50  1  0.82126900  0.50000000  0.66184000  1
  C  C51  1  0.00000000  0.00000000  0.30367300  1
  C  C52  1  0.00000000  0.32126900  0.16184000  1
  C  C53  1  0.00000000  0.67873100  0.16184000  1
  C  C54  1  0.00000000  0.00000000  0.69632700  1
  C  C55  1  0.17873100  0.50000000  0.66184000  1
  C  C56  1  0.20263400  0.79736600  0.50000000  1
  C  C57  1  0.20263400  0.20263400  0.50000000  1
