# generated using pymatgen
data_Cu7(NiC10)3
_symmetry_space_group_name_H-M   'P 1'
_cell_length_a   2.84887400
_cell_length_b   5.16103100
_cell_length_c   24.04624648
_cell_angle_alpha   88.04354395
_cell_angle_beta   90.00000000
_cell_angle_gamma   90.00000000
_symmetry_Int_Tables_number   1
_chemical_formula_structural   Cu7(NiC10)3
_chemical_formula_sum   'Cu7 Ni3 C30'
_cell_volume   353.34891578
_cell_formula_units_Z   1
loop_
 _symmetry_equiv_pos_site_id
 _symmetry_equiv_pos_as_xyz
  1  'x, y, z'
loop_
 _atom_site_type_symbol
 _atom_site_label
 _atom_site_symmetry_multiplicity
 _atom_site_fract_x
 _atom_site_fract_y
 _atom_site_fract_z
 _atom_site_occupancy
  C  C0  1  0.00000000  0.80283700  0.60042000  1
  C  C1  1  0.00000000  0.19716300  0.39958000  1
  C  C2  1  0.50000000  0.00000000  0.50000000  1
  C  C3  1  0.50000000  0.39567100  0.29928800  1
  C  C4  1  0.00000000  0.59828400  0.19924600  1
  C  C5  1  0.50000000  0.79774100  0.09934800  1
  C  C6  1  0.00000000  0.00000000  0.00000000  1
  C  C7  1  0.50000000  0.20225900  0.90065200  1
  C  C8  1  0.00000000  0.40171600  0.80075400  1
  C  C9  1  0.50000000  0.60432900  0.70071200  1
  Ni  Ni10  1  0.50000000  0.30862400  0.60297600  1
  Ni  Ni11  1  0.00000000  0.50000000  0.50000000  1
  Ni  Ni12  1  0.50000000  0.69137600  0.39702400  1
  Cu  Cu13  1  0.00000000  0.89851300  0.29763000  1
  Cu  Cu14  1  0.50000000  0.10049100  0.19856100  1
  Cu  Cu15  1  0.00000000  0.29777300  0.09919200  1
  Cu  Cu16  1  0.50000000  0.50000000  0.00000000  1
  Cu  Cu17  1  0.00000000  0.70222700  0.90080800  1
  Cu  Cu18  1  0.50000000  0.89950900  0.80143900  1
  Cu  Cu19  1  0.00000000  0.10148700  0.70237000  1
  C  C20  1  0.00000000  0.45050100  0.65071900  1
  C  C21  1  0.00000000  0.16855600  0.55226300  1
  C  C22  1  0.50000000  0.97855000  0.65612200  1
  C  C23  1  0.50000000  0.63983700  0.54988800  1
  C  C24  1  0.00000000  0.83144400  0.44773700  1
  C  C25  1  0.50000000  0.36016300  0.45011200  1
  C  C26  1  0.00000000  0.54949900  0.34928100  1
  C  C27  1  0.00000000  0.23620000  0.24308000  1
  C  C28  1  0.50000000  0.02145000  0.34387800  1
  C  C29  1  0.50000000  0.77034700  0.25323200  1
  C  C30  1  0.00000000  0.96306600  0.15432200  1
  C  C31  1  0.50000000  0.43490500  0.14288300  1
  C  C32  1  0.50000000  0.16232900  0.05538700  1
  C  C33  1  0.00000000  0.63339500  0.04404500  1
  C  C34  1  0.00000000  0.36660500  0.95595500  1
  C  C35  1  0.50000000  0.83767100  0.94461300  1
  C  C36  1  0.00000000  0.03693400  0.84567800  1
  C  C37  1  0.50000000  0.56509500  0.85711700  1
  C  C38  1  0.50000000  0.22965300  0.74676800  1
  C  C39  1  0.00000000  0.76380000  0.75692000  1
