# generated using pymatgen
data_Cu7Ni2C31
_symmetry_space_group_name_H-M   'P 1'
_cell_length_a   5.27205700
_cell_length_b   12.07162200
_cell_length_c   15.86184360
_cell_angle_alpha   83.76048821
_cell_angle_beta   90.00000000
_cell_angle_gamma   90.00000000
_symmetry_Int_Tables_number   1
_chemical_formula_structural   Cu7Ni2C31
_chemical_formula_sum   'Cu14 Ni4 C62'
_cell_volume   1003.50394968
_cell_formula_units_Z   2
loop_
 _symmetry_equiv_pos_site_id
 _symmetry_equiv_pos_as_xyz
  1  'x, y, z'
loop_
 _atom_site_type_symbol
 _atom_site_label
 _atom_site_symmetry_multiplicity
 _atom_site_fract_x
 _atom_site_fract_y
 _atom_site_fract_z
 _atom_site_occupancy
  C  C0  1  0.26469100  0.47992100  0.05401600  1
  C  C1  1  0.18838300  0.11123600  0.13604000  1
  C  C2  1  0.73530900  0.97992100  0.05401600  1
  C  C3  1  0.81161700  0.61123600  0.13604000  1
  C  C4  1  0.84413400  0.44535500  0.41761300  1
  C  C5  1  0.15586600  0.94535500  0.41761300  1
  C  C6  1  0.29262800  0.25000000  0.50000000  1
  C  C7  1  0.70737200  0.75000000  0.50000000  1
  C  C8  1  0.84413400  0.05464500  0.58238700  1
  C  C9  1  0.15586600  0.55464500  0.58238700  1
  C  C10  1  0.18838300  0.38876400  0.86396000  1
  C  C11  1  0.26469100  0.02007900  0.94598400  1
  C  C12  1  0.81161700  0.88876400  0.86396000  1
  C  C13  1  0.73530900  0.52007900  0.94598400  1
  Ni  Ni14  1  0.34824700  0.30697900  0.27525000  1
  Ni  Ni15  1  0.65175300  0.80697900  0.27525000  1
  Ni  Ni16  1  0.34824700  0.19302100  0.72475000  1
  Ni  Ni17  1  0.65175300  0.69302100  0.72475000  1
  Cu  Cu18  1  0.55689800  0.25000000  0.00000000  1
  Cu  Cu19  1  0.44310200  0.75000000  0.00000000  1
  Cu  Cu20  1  0.87286200  0.34360400  0.13115300  1
  Cu  Cu21  1  0.12713800  0.84360400  0.13115300  1
  Cu  Cu22  1  0.61691300  0.05426900  0.27629300  1
  Cu  Cu23  1  0.38308700  0.55426900  0.27629300  1
  Cu  Cu24  1  0.83161200  0.19271900  0.39920700  1
  Cu  Cu25  1  0.16838800  0.69271900  0.39920700  1
  Cu  Cu26  1  0.83161200  0.30728100  0.60079300  1
  Cu  Cu27  1  0.16838800  0.80728100  0.60079300  1
  Cu  Cu28  1  0.61691300  0.44573100  0.72370700  1
  Cu  Cu29  1  0.38308700  0.94573100  0.72370700  1
  Cu  Cu30  1  0.87286200  0.15639600  0.86884700  1
  Cu  Cu31  1  0.12713800  0.65639600  0.86884700  1
  C  C32  1  0.42015800  0.13939400  0.01452500  1
  C  C33  1  0.57984200  0.63939400  0.01452500  1
  C  C34  1  0.74955100  0.24841800  0.07809500  1
  C  C35  1  0.89980300  0.45337200  0.07536200  1
  C  C36  1  0.25044900  0.74841800  0.07809500  1
  C  C37  1  0.10019700  0.95337200  0.07536200  1
  C  C38  1  0.12686100  0.28436400  0.15489700  1
  C  C39  1  0.74594200  0.99930200  0.20494700  1
  C  C40  1  0.69890700  0.35348500  0.20691700  1
  C  C41  1  0.87313900  0.78436400  0.15489700  1
  C  C42  1  0.25405800  0.49930200  0.20494700  1
  C  C43  1  0.40918100  0.13608600  0.23924500  1
  C  C44  1  0.30109300  0.85348500  0.20691700  1
  C  C45  1  0.59081900  0.63608600  0.23924500  1
  C  C46  1  0.84198200  0.12588600  0.31398900  1
  C  C47  1  0.15801800  0.62588600  0.31398900  1
  C  C48  1  0.99858500  0.29636200  0.37586700  1
  C  C49  1  0.48668000  0.46961600  0.34745200  1
  C  C50  1  0.55003800  0.22341200  0.40890200  1
  C  C51  1  0.00141500  0.79636200  0.37586700  1
  C  C52  1  0.51332000  0.96961600  0.34745200  1
  C  C53  1  0.44996200  0.72341200  0.40890200  1
  C  C54  1  0.94735100  0.11387600  0.46985500  1
  C  C55  1  0.05264900  0.61387600  0.46985500  1
  C  C56  1  0.94735100  0.38612400  0.53014500  1
  C  C57  1  0.05264900  0.88612400  0.53014500  1
  C  C58  1  0.55003800  0.27658800  0.59109800  1
  C  C59  1  0.48668000  0.03038400  0.65254800  1
  C  C60  1  0.99858500  0.20363800  0.62413300  1
  C  C61  1  0.44996200  0.77658800  0.59109800  1
  C  C62  1  0.51332000  0.53038400  0.65254800  1
  C  C63  1  0.00141500  0.70363800  0.62413300  1
  C  C64  1  0.84198200  0.37411400  0.68601100  1
  C  C65  1  0.15801800  0.87411400  0.68601100  1
  C  C66  1  0.40918100  0.36391400  0.76075500  1
  C  C67  1  0.69890700  0.14651500  0.79308300  1
  C  C68  1  0.59081900  0.86391400  0.76075500  1
  C  C69  1  0.74594200  0.50069800  0.79505300  1
  C  C70  1  0.12686100  0.21563600  0.84510300  1
  C  C71  1  0.30109300  0.64651500  0.79308300  1
  C  C72  1  0.25405800  0.00069800  0.79505300  1
  C  C73  1  0.87313900  0.71563600  0.84510300  1
  C  C74  1  0.89980300  0.04662800  0.92463800  1
  C  C75  1  0.74955100  0.25158200  0.92190500  1
  C  C76  1  0.10019700  0.54662800  0.92463800  1
  C  C77  1  0.25044900  0.75158200  0.92190500  1
  C  C78  1  0.42015800  0.36060600  0.98547500  1
  C  C79  1  0.57984200  0.86060600  0.98547500  1
