# generated using pymatgen
data_Cu4Ni8C29
_symmetry_space_group_name_H-M   'P 1'
_cell_length_a   9.34302400
_cell_length_b   9.34302400
_cell_length_c   17.99072800
_cell_angle_alpha   90.00000000
_cell_angle_beta   90.00000000
_cell_angle_gamma   90.00000000
_symmetry_Int_Tables_number   1
_chemical_formula_structural   Cu4Ni8C29
_chemical_formula_sum   'Cu16 Ni32 C116'
_cell_volume   1570.44838203
_cell_formula_units_Z   4
loop_
 _symmetry_equiv_pos_site_id
 _symmetry_equiv_pos_as_xyz
  1  'x, y, z'
loop_
 _atom_site_type_symbol
 _atom_site_label
 _atom_site_symmetry_multiplicity
 _atom_site_fract_x
 _atom_site_fract_y
 _atom_site_fract_z
 _atom_site_occupancy
  C  C0  1  0.67839300  0.32160700  0.75000000  1
  C  C1  1  0.32160700  0.67839300  0.25000000  1
  C  C2  1  0.82160700  0.82160700  0.50000000  1
  C  C3  1  0.17839300  0.17839300  0.00000000  1
  C  C4  1  0.66444400  0.33555600  0.25000000  1
  C  C5  1  0.33555600  0.66444400  0.75000000  1
  C  C6  1  0.83555600  0.83555600  0.00000000  1
  C  C7  1  0.16444400  0.16444400  0.50000000  1
  C  C8  1  0.91752200  0.08247800  0.25000000  1
  C  C9  1  0.08247800  0.91752200  0.75000000  1
  C  C10  1  0.58247800  0.58247800  0.00000000  1
  C  C11  1  0.41752200  0.41752200  0.50000000  1
  C  C12  1  0.84512400  0.42355900  0.58612700  1
  C  C13  1  0.15487600  0.57644200  0.08612700  1
  C  C14  1  0.92355800  0.65487600  0.33612700  1
  C  C15  1  0.07644100  0.34512400  0.83612700  1
  C  C16  1  0.57644200  0.15487600  0.91387300  1
  C  C17  1  0.42355900  0.84512400  0.41387300  1
  C  C18  1  0.65487600  0.92355800  0.66387300  1
  C  C19  1  0.34512400  0.07644100  0.16387300  1
  C  C20  1  0.92242700  0.47392900  0.50279300  1
  C  C21  1  0.07757300  0.52607100  0.00279300  1
  C  C22  1  0.97392900  0.57757300  0.25279300  1
  C  C23  1  0.02607100  0.42242700  0.75279300  1
  C  C24  1  0.52607100  0.07757300  0.99720700  1
  C  C25  1  0.47392900  0.92242700  0.49720700  1
  C  C26  1  0.57757300  0.97392900  0.74720700  1
  C  C27  1  0.42242700  0.02607100  0.24720700  1
  C  C28  1  0.88891500  0.19997500  0.63625100  1
  C  C29  1  0.11108500  0.80002500  0.13625100  1
  C  C30  1  0.69997500  0.61108500  0.38625100  1
  C  C31  1  0.30002500  0.38891500  0.88625100  1
  C  C32  1  0.80002500  0.11108500  0.86374900  1
  C  C33  1  0.19997500  0.88891500  0.36374900  1
  C  C34  1  0.61108500  0.69997500  0.61374900  1
  C  C35  1  0.38891500  0.30002500  0.11374900  1
  C  C36  1  0.01425900  0.08542900  0.59551700  1
  C  C37  1  0.98574100  0.91457100  0.09551700  1
  C  C38  1  0.58542900  0.48574100  0.34551700  1
  C  C39  1  0.41457100  0.51425900  0.84551700  1
  C  C40  1  0.91457100  0.98574100  0.90448300  1
  C  C41  1  0.08542900  0.01425900  0.40448300  1
  C  C42  1  0.48574100  0.58542900  0.65448300  1
  C  C43  1  0.51425900  0.41457100  0.15448300  1
  C  C44  1  0.70662100  0.09992300  0.43609300  1
  C  C45  1  0.29337900  0.90007700  0.93609300  1
  C  C46  1  0.59992300  0.79337900  0.18609300  1
  C  C47  1  0.40007700  0.20662100  0.68609300  1
  C  C48  1  0.90007700  0.29337900  0.06390700  1
  C  C49  1  0.09992300  0.70662100  0.56390700  1
  C  C50  1  0.79337900  0.59992300  0.81390700  1
  C  C51  1  0.20662100  0.40007700  0.31390700  1
  C  C52  1  0.61472900  0.19710900  0.36685000  1
  C  C53  1  0.38527100  0.80289100  0.86685000  1
  C  C54  1  0.69710900  0.88527100  0.11685000  1
  C  C55  1  0.30289100  0.11472900  0.61685000  1
  C  C56  1  0.80289100  0.38527100  0.13315000  1
  C  C57  1  0.19710900  0.61472900  0.63315000  1
  C  C58  1  0.88527100  0.69710900  0.88315000  1
  C  C59  1  0.11472900  0.30289100  0.38315000  1
  C  C60  1  0.66129200  0.15400700  0.56074500  1
  C  C61  1  0.33870800  0.84599300  0.06074500  1
  C  C62  1  0.65400700  0.83870800  0.31074500  1
  C  C63  1  0.34599300  0.16129200  0.81074500  1
  C  C64  1  0.84599300  0.33870800  0.93925500  1
  C  C65  1  0.15400700  0.66129200  0.43925500  1
  C  C66  1  0.83870800  0.65400700  0.68925500  1
  C  C67  1  0.16129200  0.34599300  0.18925500  1
  C  C68  1  0.54859700  0.29463400  0.58527100  1
  C  C69  1  0.45140300  0.70536600  0.08527100  1
  C  C70  1  0.79463400  0.95140300  0.33527100  1
  C  C71  1  0.20536600  0.04859700  0.83527100  1
  C  C72  1  0.70536600  0.45140300  0.91472900  1
  C  C73  1  0.29463400  0.54859700  0.41472900  1
  C  C74  1  0.95140300  0.79463400  0.66472900  1
  C  C75  1  0.04859700  0.20536600  0.16472900  1
  C  C76  1  0.98557000  0.27739000  0.54191000  1
  C  C77  1  0.01443000  0.72261000  0.04191000  1
  C  C78  1  0.77739000  0.51443000  0.29191000  1
  C  C79  1  0.22261000  0.48557000  0.79191000  1
  C  C80  1  0.72261000  0.01443000  0.95809000  1
  C  C81  1  0.27739000  0.98557000  0.45809000  1
  C  C82  1  0.51443000  0.77739000  0.70809000  1
  C  C83  1  0.48557000  0.22261000  0.20809000  1
  C  C84  1  0.56783400  0.25693300  0.47273400  1
  C  C85  1  0.43216600  0.74306700  0.97273400  1
  C  C86  1  0.75693300  0.93216600  0.22273400  1
  C  C87  1  0.24306700  0.06783400  0.72273400  1
  C  C88  1  0.74306700  0.43216600  0.02726600  1
  C  C89  1  0.25693300  0.56783400  0.52726600  1
  C  C90  1  0.93216600  0.75693300  0.77726600  1
  C  C91  1  0.06783400  0.24306700  0.27726600  1
  Ni  Ni92  1  0.90717000  0.39759600  0.54190400  1
  Ni  Ni93  1  0.09283000  0.60240400  0.04190400  1
  Ni  Ni94  1  0.89759600  0.59283000  0.29190400  1
  Ni  Ni95  1  0.10240400  0.40717000  0.79190400  1
  Ni  Ni96  1  0.60240400  0.09283000  0.95809600  1
  Ni  Ni97  1  0.39759600  0.90717000  0.45809600  1
  Ni  Ni98  1  0.59283000  0.89759600  0.70809600  1
  Ni  Ni99  1  0.40717000  0.10240400  0.20809600  1
  Ni  Ni100  1  0.96633400  0.18314900  0.59680500  1
  Ni  Ni101  1  0.03366600  0.81685100  0.09680500  1
  Ni  Ni102  1  0.68314900  0.53366600  0.34680500  1
  Ni  Ni103  1  0.31685100  0.46633400  0.84680500  1
  Ni  Ni104  1  0.81685100  0.03366600  0.90319500  1
  Ni  Ni105  1  0.18314900  0.96633400  0.40319500  1
  Ni  Ni106  1  0.53366600  0.68314900  0.65319500  1
  Ni  Ni107  1  0.46633400  0.31685100  0.15319500  1
  Ni  Ni108  1  0.63653900  0.17887000  0.42158400  1
  Ni  Ni109  1  0.36346100  0.82113000  0.92158400  1
  Ni  Ni110  1  0.67887000  0.86346100  0.17158400  1
  Ni  Ni111  1  0.32113000  0.13653900  0.67158400  1
  Ni  Ni112  1  0.82113000  0.36346100  0.07841600  1
  Ni  Ni113  1  0.17887000  0.63653900  0.57841600  1
  Ni  Ni114  1  0.86346100  0.67887000  0.82841600  1
  Ni  Ni115  1  0.13653900  0.32113000  0.32841600  1
  Ni  Ni116  1  0.59044200  0.23070800  0.54500900  1
  Ni  Ni117  1  0.40955800  0.76929200  0.04500900  1
  Ni  Ni118  1  0.73070800  0.90955800  0.29500900  1
  Ni  Ni119  1  0.26929200  0.09044200  0.79500900  1
  Ni  Ni120  1  0.76929200  0.40955800  0.95499100  1
  Ni  Ni121  1  0.23070800  0.59044200  0.45499100  1
  Ni  Ni122  1  0.90955800  0.73070800  0.70499100  1
  Ni  Ni123  1  0.09044200  0.26929200  0.20499100  1
  Cu  Cu124  1  0.07761400  0.25733300  0.48891000  1
  Cu  Cu125  1  0.92238600  0.74266700  0.98891000  1
  Cu  Cu126  1  0.75733300  0.42238600  0.23891000  1
  Cu  Cu127  1  0.24266700  0.57761400  0.73891000  1
  Cu  Cu128  1  0.74266700  0.92238600  0.01109000  1
  Cu  Cu129  1  0.25733300  0.07761400  0.51109000  1
  Cu  Cu130  1  0.42238600  0.75733300  0.76109000  1
  Cu  Cu131  1  0.57761400  0.24266700  0.26109000  1
  Cu  Cu132  1  0.48061100  0.35588500  0.45090100  1
  Cu  Cu133  1  0.51938900  0.64411500  0.95090100  1
  Cu  Cu134  1  0.85588500  0.01938900  0.20090100  1
  Cu  Cu135  1  0.14411500  0.98061100  0.70090100  1
  Cu  Cu136  1  0.64411500  0.51938900  0.04909900  1
  Cu  Cu137  1  0.35588500  0.48061100  0.54909900  1
  Cu  Cu138  1  0.01938900  0.85588500  0.79909900  1
  Cu  Cu139  1  0.98061100  0.14411500  0.29909900  1
  C  C140  1  0.53515300  0.36252600  0.69326600  1
  C  C141  1  0.46484700  0.63747400  0.19326600  1
  C  C142  1  0.86252600  0.96484700  0.44326600  1
  C  C143  1  0.13747400  0.03515300  0.94326600  1
  C  C144  1  0.63747400  0.46484700  0.80673400  1
  C  C145  1  0.36252600  0.53515300  0.30673400  1
  C  C146  1  0.96484700  0.86252600  0.55673400  1
  C  C147  1  0.03515300  0.13747400  0.05673400  1
  C  C148  1  0.78949800  0.43163000  0.69792000  1
  C  C149  1  0.21050200  0.56837000  0.19792000  1
  C  C150  1  0.93163000  0.71050200  0.44792000  1
  C  C151  1  0.06837000  0.28949800  0.94792000  1
  C  C152  1  0.56837000  0.21050200  0.80208000  1
  C  C153  1  0.43163000  0.78949800  0.30208000  1
  C  C154  1  0.71050200  0.93163000  0.55208000  1
  C  C155  1  0.28949800  0.06837000  0.05208000  1
  C  C156  1  0.72101500  0.18068900  0.69298900  1
  C  C157  1  0.27898500  0.81931100  0.19298900  1
  C  C158  1  0.68068900  0.77898500  0.44298900  1
  C  C159  1  0.31931100  0.22101500  0.94298900  1
  C  C160  1  0.81931100  0.27898500  0.80701100  1
  C  C161  1  0.18068900  0.72101500  0.30701100  1
  C  C162  1  0.77898500  0.68068900  0.55701100  1
  C  C163  1  0.22101500  0.31931100  0.05701100  1
