# generated using pymatgen
data_Cu13(Ni7C2)2
_symmetry_space_group_name_H-M   'P 1'
_cell_length_a   22.48634800
_cell_length_b   9.53535600
_cell_length_c   12.36418996
_cell_angle_alpha   50.38093417
_cell_angle_beta   90.00000000
_cell_angle_gamma   90.00000000
_symmetry_Int_Tables_number   1
_chemical_formula_structural   Cu13(Ni7C2)2
_chemical_formula_sum   'Cu52 Ni56 C16'
_cell_volume   2042.12358242
_cell_formula_units_Z   4
loop_
 _symmetry_equiv_pos_site_id
 _symmetry_equiv_pos_as_xyz
  1  'x, y, z'
loop_
 _atom_site_type_symbol
 _atom_site_label
 _atom_site_symmetry_multiplicity
 _atom_site_fract_x
 _atom_site_fract_y
 _atom_site_fract_z
 _atom_site_occupancy
  C  C0  1  0.84375500  0.31188100  0.37924900  1
  C  C1  1  0.34375500  0.68811900  0.12075100  1
  C  C2  1  0.65624500  0.31188100  0.87924900  1
  C  C3  1  0.37687700  0.40179800  0.36890000  1
  C  C4  1  0.66635900  0.66842600  0.78975600  1
  C  C5  1  0.53510500  0.41221600  0.81807100  1
  C  C6  1  0.87687700  0.59820200  0.13110000  1
  C  C7  1  0.83364100  0.66842600  0.28975600  1
  C  C8  1  0.16635900  0.33157400  0.71024400  1
  C  C9  1  0.15624500  0.68811900  0.62075100  1
  C  C10  1  0.96489500  0.41221600  0.31807100  1
  C  C11  1  0.33364100  0.33157400  0.21024400  1
  C  C12  1  0.12312300  0.40179800  0.86890000  1
  C  C13  1  0.46489500  0.58778400  0.18192900  1
  C  C14  1  0.62312300  0.59820200  0.63110000  1
  C  C15  1  0.03510500  0.58778400  0.68192900  1
  Ni  Ni16  1  0.74671100  0.71641900  0.75388500  1
  Ni  Ni17  1  0.13057200  0.89412000  0.57985300  1
  Ni  Ni18  1  0.49555700  0.74784700  0.20305600  1
  Ni  Ni19  1  0.18494900  0.25364100  0.97374200  1
  Ni  Ni20  1  0.57435000  0.78922600  0.52729100  1
  Ni  Ni21  1  0.07435000  0.21077400  0.97270900  1
  Ni  Ni22  1  0.42565000  0.21077400  0.47270900  1
  Ni  Ni23  1  0.99555700  0.25215300  0.29694400  1
  Ni  Ni24  1  0.31518100  0.62316600  0.28985300  1
  Ni  Ni25  1  0.68494900  0.74635900  0.52625800  1
  Ni  Ni26  1  0.75328900  0.71641900  0.25388500  1
  Ni  Ni27  1  0.64149200  0.22146700  0.05637700  1
  Ni  Ni28  1  0.09206900  0.48326700  0.95403200  1
  Ni  Ni29  1  0.40793100  0.48326700  0.45403200  1
  Ni  Ni30  1  0.35527900  0.13247300  0.28207700  1
  Ni  Ni31  1  0.00829500  0.69058100  0.50908300  1
  Ni  Ni32  1  0.31505100  0.25364100  0.47374200  1
  Ni  Ni33  1  0.64472100  0.86752700  0.71792300  1
  Ni  Ni34  1  0.01976500  0.54537900  0.25446600  1
  Ni  Ni35  1  0.60470300  0.52234200  0.81169000  1
  Ni  Ni36  1  0.10470300  0.47765800  0.68831000  1
  Ni  Ni37  1  0.33679800  0.39101500  0.04096700  1
  Ni  Ni38  1  0.81518100  0.37683400  0.21014700  1
  Ni  Ni39  1  0.89529700  0.52234200  0.31169100  1
  Ni  Ni40  1  0.68481900  0.37683400  0.71014700  1
  Ni  Ni41  1  0.59206900  0.51673300  0.54596800  1
  Ni  Ni42  1  0.16320200  0.39101500  0.54096700  1
  Ni  Ni43  1  0.76675100  0.30547400  0.41147200  1
  Ni  Ni44  1  0.86942800  0.10588000  0.42014700  1
  Ni  Ni45  1  0.25328900  0.28358100  0.24611500  1
  Ni  Ni46  1  0.50829500  0.30941900  0.99091700  1
  Ni  Ni47  1  0.66320200  0.60898500  0.95903300  1
  Ni  Ni48  1  0.83679800  0.60898500  0.45903300  1
  Ni  Ni49  1  0.51976500  0.45462100  0.24553400  1
  Ni  Ni50  1  0.81505100  0.74635900  0.02625800  1
  Ni  Ni51  1  0.63057200  0.10588000  0.92014700  1
  Ni  Ni52  1  0.90793100  0.51673300  0.04596800  1
  Ni  Ni53  1  0.35850800  0.77853300  0.94362300  1
  Ni  Ni54  1  0.00444300  0.74784700  0.70305600  1
  Ni  Ni55  1  0.85850800  0.22146700  0.55637700  1
  Ni  Ni56  1  0.85527900  0.86752700  0.21792300  1
  Ni  Ni57  1  0.50444300  0.25215300  0.79694400  1
  Ni  Ni58  1  0.26675100  0.69452600  0.08852800  1
  Ni  Ni59  1  0.48023500  0.54537900  0.75446600  1
  Ni  Ni60  1  0.49170500  0.69058100  0.00908300  1
  Ni  Ni61  1  0.18481900  0.62316600  0.78985300  1
  Ni  Ni62  1  0.14472100  0.13247300  0.78207700  1
  Ni  Ni63  1  0.23324900  0.69452600  0.58852800  1
  Ni  Ni64  1  0.92565000  0.78922600  0.02729100  1
  Ni  Ni65  1  0.24671100  0.28358100  0.74611500  1
  Ni  Ni66  1  0.39529700  0.47765800  0.18831000  1
  Ni  Ni67  1  0.14149200  0.77853300  0.44362300  1
  Ni  Ni68  1  0.98023500  0.45462100  0.74553400  1
  Ni  Ni69  1  0.73324900  0.30547400  0.91147200  1
  Ni  Ni70  1  0.36942800  0.89412000  0.07985300  1
  Ni  Ni71  1  0.99170500  0.30941900  0.49091700  1
  Cu  Cu72  1  0.20317300  0.24993300  0.26331900  1
  Cu  Cu73  1  0.61928700  0.96522200  0.95118100  1
  Cu  Cu74  1  0.39339500  0.76430300  0.55844400  1
  Cu  Cu75  1  0.48172600  0.15143100  0.78797600  1
  Cu  Cu76  1  0.60660500  0.23569700  0.44155600  1
  Cu  Cu77  1  0.27888300  0.15036300  0.55158600  1
  Cu  Cu78  1  0.13505500  0.84415600  0.32699700  1
  Cu  Cu79  1  0.21628400  0.65089300  0.85015400  1
  Cu  Cu80  1  0.01827400  0.15143100  0.28797600  1
  Cu  Cu81  1  0.63505500  0.15584400  0.17300300  1
  Cu  Cu82  1  0.45500600  0.08565100  0.54984400  1
  Cu  Cu83  1  0.01120400  0.24856900  0.59927300  1
  Cu  Cu84  1  0.51827400  0.84856900  0.21202400  1
  Cu  Cu85  1  0.86494500  0.15584400  0.67300300  1
  Cu  Cu86  1  0.06846400  0.87761400  0.98022800  1
  Cu  Cu87  1  0.57101000  0.47012300  0.48825300  1
  Cu  Cu88  1  0.51120400  0.75143100  0.90072700  1
  Cu  Cu89  1  0.89339500  0.23569700  0.94155600  1
  Cu  Cu90  1  0.28371600  0.65089300  0.35015400  1
  Cu  Cu91  1  0.83948700  0.57449100  0.56689200  1
  Cu  Cu92  1  0.71628400  0.34910700  0.64984600  1
  Cu  Cu93  1  0.07101000  0.52987700  0.01174700  1
  Cu  Cu94  1  0.72111700  0.84963700  0.44841400  1
  Cu  Cu95  1  0.38071300  0.03477800  0.04881900  1
  Cu  Cu96  1  0.10660500  0.76430300  0.05844400  1
  Cu  Cu97  1  0.78371600  0.34910700  0.14984600  1
  Cu  Cu98  1  0.56846400  0.12238600  0.51977200  1
  Cu  Cu99  1  0.93153600  0.12238600  0.01977200  1
  Cu  Cu100  1  0.33948700  0.42550900  0.93310800  1
  Cu  Cu101  1  0.28374200  0.71727800  0.56451700  1
  Cu  Cu102  1  0.95500600  0.91434900  0.95015600  1
  Cu  Cu103  1  0.98879600  0.75143100  0.40072700  1
  Cu  Cu104  1  0.66051300  0.57449100  0.06689200  1
  Cu  Cu105  1  0.79682700  0.75006700  0.73668100  1
  Cu  Cu106  1  0.29682700  0.24993300  0.76331900  1
  Cu  Cu107  1  0.88071300  0.96522200  0.45118100  1
  Cu  Cu108  1  0.78374200  0.28272200  0.93548300  1
  Cu  Cu109  1  0.54499400  0.91434900  0.45015600  1
  Cu  Cu110  1  0.43153600  0.87761400  0.48022800  1
  Cu  Cu111  1  0.04499400  0.08565100  0.04984400  1
  Cu  Cu112  1  0.70317300  0.75006700  0.23668100  1
  Cu  Cu113  1  0.21625800  0.71727800  0.06451700  1
  Cu  Cu114  1  0.11928700  0.03477800  0.54881900  1
  Cu  Cu115  1  0.42899000  0.52987700  0.51174700  1
  Cu  Cu116  1  0.77888300  0.84963700  0.94841400  1
  Cu  Cu117  1  0.92899000  0.47012300  0.98825300  1
  Cu  Cu118  1  0.16051300  0.42550900  0.43310800  1
  Cu  Cu119  1  0.36494500  0.84415600  0.82699700  1
  Cu  Cu120  1  0.22111700  0.15036300  0.05158600  1
  Cu  Cu121  1  0.48879600  0.24856900  0.09927300  1
  Cu  Cu122  1  0.98172600  0.84856900  0.71202400  1
  Cu  Cu123  1  0.71625800  0.28272200  0.43548300  1
