# generated using pymatgen
data_Cu9Ni2C3
_symmetry_space_group_name_H-M   'P 1'
_cell_length_a   7.36020700
_cell_length_b   8.11176494
_cell_length_c   12.03256779
_cell_angle_alpha   93.40205974
_cell_angle_beta   104.08194235
_cell_angle_gamma   115.40621655
_symmetry_Int_Tables_number   1
_chemical_formula_structural   Cu9Ni2C3
_chemical_formula_sum   'Cu18 Ni4 C6'
_cell_volume   618.32979595
_cell_formula_units_Z   2
loop_
 _symmetry_equiv_pos_site_id
 _symmetry_equiv_pos_as_xyz
  1  'x, y, z'
loop_
 _atom_site_type_symbol
 _atom_site_label
 _atom_site_symmetry_multiplicity
 _atom_site_fract_x
 _atom_site_fract_y
 _atom_site_fract_z
 _atom_site_occupancy
  C  C0  1  0.53065800  0.02347400  0.21576500  1
  C  C1  1  0.46934200  0.97652600  0.78423500  1
  C  C2  1  0.80001500  0.66888300  0.75047100  1
  C  C3  1  0.19998500  0.33111700  0.24952900  1
  C  C4  1  0.85746000  0.78151600  0.05817900  1
  C  C5  1  0.14254000  0.21848400  0.94182100  1
  Ni  Ni6  1  0.00971100  0.02798700  0.69976300  1
  Ni  Ni7  1  0.99028900  0.97201300  0.30023700  1
  Ni  Ni8  1  0.61912000  0.33187600  0.62186500  1
  Ni  Ni9  1  0.38088000  0.66812400  0.37813500  1
  Cu  Cu10  1  0.05797700  0.67493700  0.77569600  1
  Cu  Cu11  1  0.94202300  0.32506300  0.22430400  1
  Cu  Cu12  1  0.55616400  0.68802500  0.69869000  1
  Cu  Cu13  1  0.44383600  0.31197500  0.30131000  1
  Cu  Cu14  1  0.10652600  0.76370400  0.09389100  1
  Cu  Cu15  1  0.89347400  0.23629600  0.90610900  1
  Cu  Cu16  1  0.64164200  0.84865000  0.03699600  1
  Cu  Cu17  1  0.35835800  0.15135000  0.96300400  1
  Cu  Cu18  1  0.73085300  0.56517900  0.89503600  1
  Cu  Cu19  1  0.26914700  0.43482100  0.10496400  1
  Cu  Cu20  1  0.92338200  0.90132500  0.90425700  1
  Cu  Cu21  1  0.07661800  0.09867500  0.09574300  1
  Cu  Cu22  1  0.88132700  0.66646600  0.50754500  1
  Cu  Cu23  1  0.11867300  0.33353400  0.49245500  1
  Cu  Cu24  1  0.72914100  0.57944700  0.12845300  1
  Cu  Cu25  1  0.27085900  0.42055300  0.87154700  1
  Cu  Cu26  1  0.93305500  0.25324400  0.49187100  1
  Cu  Cu27  1  0.06694500  0.74675600  0.50812900  1
