# generated using pymatgen
data_Cu3Ni15C38
_symmetry_space_group_name_H-M   'P 1'
_cell_length_a   8.46971958
_cell_length_b   8.46971958
_cell_length_c   8.46972019
_cell_angle_alpha   89.87351124
_cell_angle_beta   89.87351124
_cell_angle_gamma   89.87351676
_symmetry_Int_Tables_number   1
_chemical_formula_structural   Cu3Ni15C38
_chemical_formula_sum   'Cu3 Ni15 C38'
_cell_volume   607.58068043
_cell_formula_units_Z   1
loop_
 _symmetry_equiv_pos_site_id
 _symmetry_equiv_pos_as_xyz
  1  'x, y, z'
loop_
 _atom_site_type_symbol
 _atom_site_label
 _atom_site_symmetry_multiplicity
 _atom_site_fract_x
 _atom_site_fract_y
 _atom_site_fract_z
 _atom_site_occupancy
  C  C0  1  0.25119000  0.25119000  0.25119000  1
  C  C1  1  0.24826300  0.74898500  0.74898500  1
  C  C2  1  0.99879500  0.99879500  0.99879500  1
  C  C3  1  0.74898500  0.74898500  0.24826300  1
  C  C4  1  0.74898500  0.24826300  0.74898500  1
  C  C5  1  0.62461100  0.62461100  0.62461100  1
  Ni  Ni6  1  0.38241800  0.62564800  0.38241800  1
  Ni  Ni7  1  0.38241800  0.38241800  0.62564800  1
  Ni  Ni8  1  0.37408200  0.87716600  0.12233100  1
  Ni  Ni9  1  0.37408200  0.12233100  0.87716600  1
  Ni  Ni10  1  0.12204000  0.62629800  0.12204000  1
  Ni  Ni11  1  0.12233100  0.37408200  0.87716600  1
  Ni  Ni12  1  0.12233100  0.87716600  0.37408200  1
  Ni  Ni13  1  0.12204000  0.12204000  0.62629800  1
  Ni  Ni14  1  0.87716600  0.37408200  0.12233100  1
  Ni  Ni15  1  0.87190400  0.62503900  0.87190400  1
  Ni  Ni16  1  0.87716600  0.12233100  0.37408200  1
  Ni  Ni17  1  0.87190400  0.87190400  0.62503900  1
  Ni  Ni18  1  0.62564800  0.38241800  0.38241800  1
  Ni  Ni19  1  0.62629800  0.12204000  0.12204000  1
  Ni  Ni20  1  0.62503900  0.87190400  0.87190400  1
  Cu  Cu21  1  0.50110900  0.00031300  0.50110900  1
  Cu  Cu22  1  0.00031300  0.50110900  0.50110900  1
  Cu  Cu23  1  0.50110900  0.50110900  0.00031300  1
  C  C24  1  0.38627400  0.88641500  0.88641500  1
  C  C25  1  0.38749100  0.38749100  0.38749100  1
  C  C26  1  0.38641400  0.11340800  0.11340800  1
  C  C27  1  0.36604100  0.36604100  0.86506500  1
  C  C28  1  0.37371700  0.60912400  0.60912400  1
  C  C29  1  0.36604100  0.86506500  0.36604100  1
  C  C30  1  0.36173500  0.13740300  0.63571400  1
  C  C31  1  0.36173500  0.63571400  0.13740300  1
  C  C32  1  0.13785100  0.13785100  0.86264300  1
  C  C33  1  0.13740300  0.63571400  0.36173500  1
  C  C34  1  0.13740300  0.36173500  0.63571400  1
  C  C35  1  0.11340800  0.11340800  0.38641400  1
  C  C36  1  0.13785100  0.86264300  0.13785100  1
  C  C37  1  0.11201700  0.61305600  0.88862500  1
  C  C38  1  0.11201700  0.88862500  0.61305600  1
  C  C39  1  0.11340800  0.38641400  0.11340800  1
  C  C40  1  0.88862500  0.11201700  0.61305600  1
  C  C41  1  0.88862500  0.61305600  0.11201700  1
  C  C42  1  0.88641500  0.88641500  0.38627400  1
  C  C43  1  0.87571300  0.63921000  0.63921000  1
  C  C44  1  0.88641500  0.38627400  0.88641500  1
  C  C45  1  0.86264300  0.13785100  0.13785100  1
  C  C46  1  0.86226100  0.86226100  0.86226100  1
  C  C47  1  0.86506500  0.36604100  0.36604100  1
  C  C48  1  0.63921000  0.87571300  0.63921000  1
  C  C49  1  0.63571400  0.36173500  0.13740300  1
  C  C50  1  0.63921000  0.63921000  0.87571300  1
  C  C51  1  0.61305600  0.88862500  0.11201700  1
  C  C52  1  0.63571400  0.13740300  0.36173500  1
  C  C53  1  0.60912400  0.37371700  0.60912400  1
  C  C54  1  0.61305600  0.11201700  0.88862500  1
  C  C55  1  0.60912400  0.60912400  0.37371700  1
