# generated using pymatgen
data_CuNiC10
_symmetry_space_group_name_H-M   'P 1'
_cell_length_a   6.72661700
_cell_length_b   8.89076889
_cell_length_c   10.41127074
_cell_angle_alpha   91.37958766
_cell_angle_beta   90.29495876
_cell_angle_gamma   90.08101273
_symmetry_Int_Tables_number   1
_chemical_formula_structural   CuNiC10
_chemical_formula_sum   'Cu4 Ni4 C40'
_cell_volume   622.45446437
_cell_formula_units_Z   4
loop_
 _symmetry_equiv_pos_site_id
 _symmetry_equiv_pos_as_xyz
  1  'x, y, z'
loop_
 _atom_site_type_symbol
 _atom_site_label
 _atom_site_symmetry_multiplicity
 _atom_site_fract_x
 _atom_site_fract_y
 _atom_site_fract_z
 _atom_site_occupancy
  C  C0  1  0.46754400  0.74111900  0.62055100  1
  C  C1  1  0.00768000  0.75850500  0.12487400  1
  C  C2  1  0.49490100  0.75791400  0.12093700  1
  C  C3  1  0.50481800  0.24480000  0.88409200  1
  C  C4  1  0.99551200  0.24487500  0.88603900  1
  C  C5  1  0.50469300  0.24925400  0.36921800  1
  C  C6  1  0.99500400  0.24755500  0.36657100  1
  C  C7  1  0.76551200  0.06777300  0.61752200  1
  C  C8  1  0.75530000  0.64922700  0.88471300  1
  C  C9  1  0.75748700  0.64829000  0.39477500  1
  C  C10  1  0.24804100  0.35250300  0.60886900  1
  C  C11  1  0.25250200  0.35370700  0.10986700  1
  Ni  Ni12  1  0.25153800  0.57789400  0.85589800  1
  Ni  Ni13  1  0.25101900  0.58142600  0.35251800  1
  Ni  Ni14  1  0.74730500  0.41762700  0.64669000  1
  Ni  Ni15  1  0.75156300  0.42446800  0.14764900  1
  Cu  Cu16  1  0.74572600  0.92954600  0.85907900  1
  Cu  Cu17  1  0.74726000  0.92937500  0.36541300  1
  Cu  Cu18  1  0.25213300  0.07520900  0.63582200  1
  Cu  Cu19  1  0.25092000  0.07411000  0.13538800  1
  C  C20  1  0.26106000  0.93648600  0.64033600  1
  C  C21  1  0.25188700  0.93374000  0.13753900  1
  C  C22  1  0.75623700  0.85544200  0.96733300  1
  C  C23  1  0.74607200  0.85340200  0.47313000  1
  C  C24  1  0.73298900  0.84521900  0.75656100  1
  C  C25  1  0.74927800  0.84725000  0.26177300  1
  C  C26  1  0.06397800  0.66734900  0.89428400  1
  C  C27  1  0.43941200  0.67031600  0.89197600  1
  C  C28  1  0.06176100  0.67323800  0.37736100  1
  C  C29  1  0.43896900  0.67185900  0.38923800  1
  C  C30  1  0.25623200  0.54176000  0.70723500  1
  C  C31  1  0.73660700  0.56797100  0.57837600  1
  C  C32  1  0.25862200  0.54625600  0.20210800  1
  C  C33  1  0.75061600  0.57817800  0.08111100  1
  C  C34  1  0.25274600  0.42348000  0.92382800  1
  C  C35  1  0.75094000  0.45109400  0.79740200  1
  C  C36  1  0.24767300  0.42761700  0.42186200  1
  C  C37  1  0.75190000  0.45405300  0.29936400  1
  C  C38  1  0.56640900  0.31426000  0.61568200  1
  C  C39  1  0.93205100  0.32172500  0.61148300  1
  C  C40  1  0.56577600  0.32964800  0.11354600  1
  C  C41  1  0.93816900  0.33152600  0.11352600  1
  C  C42  1  0.24630000  0.16866700  0.73573100  1
  C  C43  1  0.25082700  0.16399400  0.23638100  1
  C  C44  1  0.24696200  0.14867900  0.52537800  1
  C  C45  1  0.25021800  0.14879600  0.02660800  1
  C  C46  1  0.74991300  0.07226500  0.85669300  1
  C  C47  1  0.74784200  0.07211100  0.37265800  1
