# generated using pymatgen
data_Cu6Ni6C11
_symmetry_space_group_name_H-M   'P 1'
_cell_length_a   8.86311800
_cell_length_b   9.14263843
_cell_length_c   13.36847834
_cell_angle_alpha   83.42021701
_cell_angle_beta   71.30797613
_cell_angle_gamma   78.80741346
_symmetry_Int_Tables_number   1
_chemical_formula_structural   Cu6Ni6C11
_chemical_formula_sum   'Cu12 Ni12 C22'
_cell_volume   1005.02334773
_cell_formula_units_Z   2
loop_
 _symmetry_equiv_pos_site_id
 _symmetry_equiv_pos_as_xyz
  1  'x, y, z'
loop_
 _atom_site_type_symbol
 _atom_site_label
 _atom_site_symmetry_multiplicity
 _atom_site_fract_x
 _atom_site_fract_y
 _atom_site_fract_z
 _atom_site_occupancy
  C  C0  1  0.26782500  0.05998900  0.48442800  1
  C  C1  1  0.73217500  0.94001100  0.51557200  1
  C  C2  1  0.82824000  0.41019000  0.48364200  1
  C  C3  1  0.17176000  0.58981000  0.51635800  1
  Ni  Ni4  1  0.27576700  0.56674100  0.76953200  1
  Ni  Ni5  1  0.72423300  0.43325900  0.23046800  1
  Ni  Ni6  1  0.01632200  0.27178100  0.73864300  1
  Ni  Ni7  1  0.98367800  0.72821900  0.26135700  1
  Ni  Ni8  1  0.96958600  0.88278100  0.71061400  1
  Ni  Ni9  1  0.03041400  0.11721900  0.28938600  1
  Ni  Ni10  1  0.73479600  0.60896500  0.74102500  1
  Ni  Ni11  1  0.26520400  0.39103500  0.25897500  1
  Ni  Ni12  1  0.62700000  0.22525800  0.72518700  1
  Ni  Ni13  1  0.37300000  0.77474200  0.27481300  1
  Ni  Ni14  1  0.34865300  0.94594900  0.74394200  1
  Ni  Ni15  1  0.65134700  0.05405100  0.25605800  1
  C  C16  1  0.23024600  0.25628000  0.88374800  1
  C  C17  1  0.76975400  0.74372000  0.11625200  1
  C  C18  1  0.62413500  0.89486700  0.86458000  1
  C  C19  1  0.37586500  0.10513300  0.13542000  1
  Cu  Cu20  1  0.21169500  0.51277400  0.89758200  1
  Cu  Cu21  1  0.78830500  0.48722600  0.10241800  1
  Cu  Cu22  1  0.97406700  0.26265600  0.87059500  1
  Cu  Cu23  1  0.02593300  0.73734400  0.12940500  1
  Cu  Cu24  1  0.90444500  0.87197300  0.84263900  1
  Cu  Cu25  1  0.09555500  0.12802700  0.15736100  1
  Cu  Cu26  1  0.63509600  0.62932700  0.86830400  1
  Cu  Cu27  1  0.36490400  0.37067300  0.13169600  1
  Cu  Cu28  1  0.59459900  0.21499300  0.85404900  1
  Cu  Cu29  1  0.40540100  0.78500700  0.14595100  1
  Cu  Cu30  1  0.29289000  0.92824100  0.87464800  1
  Cu  Cu31  1  0.70711000  0.07175900  0.12535200  1
  C  C32  1  0.31818800  0.60346900  0.67918900  1
  C  C33  1  0.68181200  0.39653100  0.32081100  1
  C  C34  1  0.04228600  0.27846600  0.64652600  1
  C  C35  1  0.95771400  0.72153400  0.35347400  1
  C  C36  1  0.01796100  0.88723500  0.61766300  1
  C  C37  1  0.98203900  0.11276500  0.38233700  1
  C  C38  1  0.80945900  0.59665100  0.65128500  1
  C  C39  1  0.19054100  0.40334900  0.34871500  1
  C  C40  1  0.65028400  0.22630400  0.63296400  1
  C  C41  1  0.34971600  0.77369600  0.36703600  1
  C  C42  1  0.39116500  0.96218400  0.65107000  1
  C  C43  1  0.60883500  0.03781600  0.34893000  1
  C  C44  1  0.40434700  0.31863700  0.50993100  1
  C  C45  1  0.59565200  0.68136300  0.49006900  1
