# generated using pymatgen
data_Cu5(Ni2C5)8
_symmetry_space_group_name_H-M   'P 1'
_cell_length_a   11.46838200
_cell_length_b   9.43348906
_cell_length_c   7.10693684
_cell_angle_alpha   89.94497274
_cell_angle_beta   90.00001307
_cell_angle_gamma   90.00003321
_symmetry_Int_Tables_number   1
_chemical_formula_structural   Cu5(Ni2C5)8
_chemical_formula_sum   'Cu5 Ni16 C40'
_cell_volume   768.87679892
_cell_formula_units_Z   1
loop_
 _symmetry_equiv_pos_site_id
 _symmetry_equiv_pos_as_xyz
  1  'x, y, z'
loop_
 _atom_site_type_symbol
 _atom_site_label
 _atom_site_symmetry_multiplicity
 _atom_site_fract_x
 _atom_site_fract_y
 _atom_site_fract_z
 _atom_site_occupancy
  Ni  Ni0  1  0.14780300  0.55336600  0.50306700  1
  Ni  Ni1  1  0.14869300  0.05109700  0.99700700  1
  Ni  Ni2  1  0.14759000  0.05223500  0.50500000  1
  Ni  Ni3  1  0.14845900  0.54963900  0.99498900  1
  Ni  Ni4  1  0.35354000  0.94742800  0.75056100  1
  Ni  Ni5  1  0.35155400  0.95080000  0.24966900  1
  Ni  Ni6  1  0.34940400  0.44878900  0.25446700  1
  Ni  Ni7  1  0.35167200  0.44535500  0.74575200  1
  Ni  Ni8  1  0.64832800  0.44535500  0.74575200  1
  Ni  Ni9  1  0.65059600  0.44878900  0.25446700  1
  Ni  Ni10  1  0.64844600  0.95080000  0.24966900  1
  Ni  Ni11  1  0.64646000  0.94742800  0.75056100  1
  Ni  Ni12  1  0.85130700  0.05109800  0.99700700  1
  Ni  Ni13  1  0.85241000  0.05223500  0.50500000  1
  Ni  Ni14  1  0.85154100  0.54963900  0.99498900  1
  Ni  Ni15  1  0.85219700  0.55336600  0.50306700  1
  Cu  Cu16  1  0.00000000  0.31085000  0.74334700  1
  Cu  Cu17  1  0.00000000  0.81797600  0.75076100  1
  Cu  Cu18  1  0.50000000  0.68387400  0.00150500  1
  Cu  Cu19  1  0.50000000  0.68445600  0.49892900  1
  Cu  Cu20  1  0.50000000  0.18112800  0.49881700  1
  C  C21  1  0.00000000  0.48340400  0.98252300  1
  C  C22  1  0.00000000  0.48462600  0.51745300  1
  C  C23  1  0.00000000  0.98356000  0.97964500  1
  C  C24  1  0.00000000  0.98307700  0.51984500  1
  C  C25  1  0.12926200  0.22200700  0.97101200  1
  C  C26  1  0.12613600  0.22267100  0.53533900  1
  C  C27  1  0.12929700  0.72059400  0.96734800  1
  C  C28  1  0.12737100  0.72386200  0.52914700  1
  C  C29  1  0.17745600  0.50323800  0.25122100  1
  C  C30  1  0.17662800  0.00465600  0.24957600  1
  C  C31  1  0.18210800  0.48521000  0.74724700  1
  C  C32  1  0.18298100  0.98605100  0.75151300  1
  C  C33  1  0.32402000  0.00444700  0.99980900  1
  C  C34  1  0.31715300  0.00065000  0.50024700  1
  C  C35  1  0.32071700  0.49591000  0.99960600  1
  C  C36  1  0.32419200  0.51903600  0.50074100  1
  C  C37  1  0.37376900  0.27622500  0.71540600  1
  C  C38  1  0.38073300  0.77438900  0.75584300  1
  C  C39  1  0.37023000  0.27898900  0.28561300  1
  C  C40  1  0.37767700  0.77736300  0.24447600  1
  C  C41  1  0.50000000  0.02001000  0.72641100  1
  C  C42  1  0.50000000  0.52089600  0.75622000  1
  C  C43  1  0.50000000  0.01882300  0.27174800  1
  C  C44  1  0.50000000  0.52005400  0.24348900  1
  C  C45  1  0.62976900  0.27898900  0.28561300  1
  C  C46  1  0.62623100  0.27622500  0.71540600  1
  C  C47  1  0.62232300  0.77736300  0.24447600  1
  C  C48  1  0.61926700  0.77438900  0.75584300  1
  C  C49  1  0.67598100  0.00444700  0.99980900  1
  C  C50  1  0.68284700  0.00065000  0.50024700  1
  C  C51  1  0.67928300  0.49591000  0.99960600  1
  C  C52  1  0.67580800  0.51903600  0.50074100  1
  C  C53  1  0.81789200  0.48521000  0.74724700  1
  C  C54  1  0.82254400  0.50323700  0.25122100  1
  C  C55  1  0.82337200  0.00465600  0.24957600  1
  C  C56  1  0.81701900  0.98605000  0.75151300  1
  C  C57  1  0.87386400  0.22267100  0.53533900  1
  C  C58  1  0.87073800  0.22200700  0.97101100  1
  C  C59  1  0.87070300  0.72059400  0.96734800  1
  C  C60  1  0.87262900  0.72386200  0.52914700  1
