# generated using pymatgen
data_CuNi3C13
_symmetry_space_group_name_H-M   'P 1'
_cell_length_a   6.02248273
_cell_length_b   6.02248273
_cell_length_c   9.92334729
_cell_angle_alpha   89.84166118
_cell_angle_beta   89.84166118
_cell_angle_gamma   120.58386139
_symmetry_Int_Tables_number   1
_chemical_formula_structural   CuNi3C13
_chemical_formula_sum   'Cu2 Ni6 C26'
_cell_volume   309.84742723
_cell_formula_units_Z   2
loop_
 _symmetry_equiv_pos_site_id
 _symmetry_equiv_pos_as_xyz
  1  'x, y, z'
loop_
 _atom_site_type_symbol
 _atom_site_label
 _atom_site_symmetry_multiplicity
 _atom_site_fract_x
 _atom_site_fract_y
 _atom_site_fract_z
 _atom_site_occupancy
  C  C0  1  0.01489100  0.01483900  0.48683200  1
  C  C1  1  0.34676300  0.68348100  0.27438300  1
  C  C2  1  0.20905300  0.40567000  0.05539700  1
  C  C3  1  0.62360500  0.81932000  0.05833200  1
  C  C4  1  0.20896400  0.81837500  0.05839300  1
  C  C5  1  0.81837500  0.20896400  0.55839300  1
  C  C6  1  0.68348100  0.34676300  0.77438300  1
  C  C7  1  0.40567000  0.20905300  0.55539700  1
  C  C8  1  0.81932000  0.62360500  0.55833200  1
  C  C9  1  0.01483900  0.01489100  0.98683200  1
  Ni  Ni10  1  0.18834100  0.35437400  0.78662100  1
  Ni  Ni11  1  0.35437400  0.18834100  0.28662100  1
  Ni  Ni12  1  0.67195000  0.84127900  0.78891900  1
  Ni  Ni13  1  0.18648900  0.84622400  0.78696600  1
  Ni  Ni14  1  0.84622400  0.18648900  0.28696600  1
  Ni  Ni15  1  0.84127900  0.67195000  0.28891900  1
  Cu  Cu16  1  0.34626100  0.68193800  0.52713800  1
  Cu  Cu17  1  0.68193800  0.34626100  0.02713800  1
  C  C18  1  0.18142900  0.34991800  0.41083500  1
  C  C19  1  0.49691700  0.51905500  0.65754000  1
  C  C20  1  0.01771900  0.02311700  0.17689800  1
  C  C21  1  0.68174500  0.85582300  0.41106100  1
  C  C22  1  0.03533100  0.52408800  0.65944300  1
  C  C23  1  0.33243000  0.67428500  0.90664800  1
  C  C24  1  0.49627600  0.99153600  0.65975600  1
  C  C25  1  0.85606000  0.18552900  0.91087600  1
  C  C26  1  0.18552900  0.85606000  0.41087600  1
  C  C27  1  0.52408800  0.03533100  0.15944300  1
  C  C28  1  0.34991800  0.18142900  0.91083500  1
  C  C29  1  0.99153600  0.49627600  0.15975600  1
  C  C30  1  0.67428500  0.33243000  0.40664800  1
  C  C31  1  0.51905500  0.49691700  0.15754000  1
  C  C32  1  0.85582300  0.68174500  0.91106100  1
  C  C33  1  0.02311700  0.01771900  0.67689800  1
