# generated using pymatgen
data_Cu5Ni5C3
_symmetry_space_group_name_H-M   'P 1'
_cell_length_a   12.81991983
_cell_length_b   12.81991983
_cell_length_c   12.81991983
_cell_angle_alpha   162.31726189
_cell_angle_beta   161.98439134
_cell_angle_gamma   25.34784957
_symmetry_Int_Tables_number   1
_chemical_formula_structural   Cu5Ni5C3
_chemical_formula_sum   'Cu5 Ni5 C3'
_cell_volume   197.87038215
_cell_formula_units_Z   1
loop_
 _symmetry_equiv_pos_site_id
 _symmetry_equiv_pos_as_xyz
  1  'x, y, z'
loop_
 _atom_site_type_symbol
 _atom_site_label
 _atom_site_symmetry_multiplicity
 _atom_site_fract_x
 _atom_site_fract_y
 _atom_site_fract_z
 _atom_site_occupancy
  C  C0  1  0.00000000  0.00000000  0.00000000  1
  C  C1  1  0.15514700  0.15514700  0.00000000  1
  C  C2  1  0.84485300  0.84485300  0.00000000  1
  Ni  Ni3  1  0.84583700  0.34583700  0.50000000  1
  Ni  Ni4  1  0.50000000  0.00000000  0.50000000  1
  Ni  Ni5  1  0.07766200  0.07766200  0.00000000  1
  Ni  Ni6  1  0.92233800  0.92233800  0.00000000  1
  Ni  Ni7  1  0.15416300  0.65416300  0.50000000  1
  Cu  Cu8  1  0.65638500  0.15638500  0.50000000  1
  Cu  Cu9  1  0.23141000  0.23141000  0.00000000  1
  Cu  Cu10  1  0.76859000  0.76859000  0.00000000  1
  Cu  Cu11  1  0.00000000  0.50000000  0.50000000  1
  Cu  Cu12  1  0.34361500  0.84361500  0.50000000  1
