# generated using pymatgen
data_CuNi3C28
_symmetry_space_group_name_H-M   'P 1'
_cell_length_a   11.72990090
_cell_length_b   11.72990090
_cell_length_c   11.72990101
_cell_angle_alpha   44.06667548
_cell_angle_beta   44.06667548
_cell_angle_gamma   44.06667991
_symmetry_Int_Tables_number   1
_chemical_formula_structural   CuNi3C28
_chemical_formula_sum   'Cu2 Ni6 C56'
_cell_volume   709.16453016
_cell_formula_units_Z   2
loop_
 _symmetry_equiv_pos_site_id
 _symmetry_equiv_pos_as_xyz
  1  'x, y, z'
loop_
 _atom_site_type_symbol
 _atom_site_label
 _atom_site_symmetry_multiplicity
 _atom_site_fract_x
 _atom_site_fract_y
 _atom_site_fract_z
 _atom_site_occupancy
  Ni  Ni0  1  0.95622400  0.76095100  0.46861900  1
  Ni  Ni1  1  0.76095100  0.46861900  0.95622400  1
  Ni  Ni2  1  0.46861900  0.95622400  0.76095100  1
  Ni  Ni3  1  0.26095100  0.45622400  0.96861900  1
  Ni  Ni4  1  0.45622400  0.96861900  0.26095100  1
  Ni  Ni5  1  0.96861900  0.26095100  0.45622400  1
  Cu  Cu6  1  0.49081700  0.49081700  0.49081700  1
  Cu  Cu7  1  0.99081700  0.99081700  0.99081700  1
  C  C8  1  0.37368200  0.37368200  0.37368200  1
  C  C9  1  0.87368200  0.87368200  0.87368200  1
  C  C10  1  0.12847600  0.12847600  0.12847600  1
  C  C11  1  0.62847600  0.62847600  0.62847600  1
  C  C12  1  0.40188600  0.26321500  0.79628800  1
  C  C13  1  0.26321500  0.79628800  0.40188600  1
  C  C14  1  0.79628800  0.40188600  0.26321500  1
  C  C15  1  0.76321500  0.90188600  0.29628800  1
  C  C16  1  0.90188600  0.29628800  0.76321500  1
  C  C17  1  0.29628800  0.76321500  0.90188600  1
  C  C18  1  0.23186300  0.73053200  0.59345700  1
  C  C19  1  0.73053200  0.59345700  0.23186300  1
  C  C20  1  0.59345700  0.23186300  0.73053200  1
  C  C21  1  0.23053200  0.73186300  0.09345700  1
  C  C22  1  0.73186300  0.09345700  0.23053200  1
  C  C23  1  0.09345700  0.23053200  0.73186300  1
  C  C24  1  0.42735700  0.76727500  0.10692600  1
  C  C25  1  0.76727500  0.10692600  0.42735700  1
  C  C26  1  0.10692600  0.42735700  0.76727500  1
  C  C27  1  0.26727500  0.92735700  0.60692600  1
  C  C28  1  0.92735700  0.60692600  0.26727500  1
  C  C29  1  0.60692600  0.26727500  0.92735700  1
  C  C30  1  0.02213700  0.60574400  0.76806100  1
  C  C31  1  0.60574400  0.76806100  0.02213700  1
  C  C32  1  0.76806100  0.02213700  0.60574400  1
  C  C33  1  0.10574400  0.52213700  0.26806100  1
  C  C34  1  0.52213700  0.26806100  0.10574400  1
  C  C35  1  0.26806100  0.10574400  0.52213700  1
  C  C36  1  0.42935100  0.42935100  0.42935100  1
  C  C37  1  0.92935100  0.92935100  0.92935100  1
  C  C38  1  0.18252000  0.56360800  0.31658900  1
  C  C39  1  0.56360800  0.31658900  0.18252000  1
  C  C40  1  0.31658900  0.18252000  0.56360800  1
  C  C41  1  0.06360800  0.68252000  0.81658900  1
  C  C42  1  0.68252000  0.81658900  0.06360800  1
  C  C43  1  0.81658900  0.06360800  0.68252000  1
  C  C44  1  0.18482300  0.18482300  0.18482300  1
  C  C45  1  0.68482300  0.68482300  0.68482300  1
  C  C46  1  0.88959600  0.25823300  0.18383200  1
  C  C47  1  0.25823300  0.18383200  0.88959600  1
  C  C48  1  0.18383200  0.88959600  0.25823300  1
  C  C49  1  0.75823300  0.38959600  0.68383200  1
  C  C50  1  0.38959600  0.68383200  0.75823300  1
  C  C51  1  0.68383200  0.75823300  0.38959600  1
  C  C52  1  0.46885100  0.32564400  0.74200900  1
  C  C53  1  0.32564400  0.74200900  0.46885100  1
  C  C54  1  0.74200900  0.46885100  0.32564400  1
  C  C55  1  0.82564400  0.96885100  0.24200900  1
  C  C56  1  0.96885100  0.24200900  0.82564400  1
  C  C57  1  0.24200900  0.82564400  0.96885100  1
  C  C58  1  0.01009500  0.55055200  0.74308600  1
  C  C59  1  0.55055200  0.74308600  0.01009500  1
  C  C60  1  0.74308600  0.01009500  0.55055200  1
  C  C61  1  0.05055200  0.51009500  0.24308600  1
  C  C62  1  0.51009500  0.24308600  0.05055200  1
  C  C63  1  0.24308600  0.05055200  0.51009500  1
