# generated using pymatgen
data_CuNiC5
_symmetry_space_group_name_H-M   'P 1'
_cell_length_a   11.43718561
_cell_length_b   11.43718561
_cell_length_c   7.81057903
_cell_angle_alpha   88.99050979
_cell_angle_beta   88.99050979
_cell_angle_gamma   147.21448206
_symmetry_Int_Tables_number   1
_chemical_formula_structural   CuNiC5
_chemical_formula_sum   'Cu2 Ni2 C10'
_cell_volume   552.16479885
_cell_formula_units_Z   2
loop_
 _symmetry_equiv_pos_site_id
 _symmetry_equiv_pos_as_xyz
  1  'x, y, z'
loop_
 _atom_site_type_symbol
 _atom_site_label
 _atom_site_symmetry_multiplicity
 _atom_site_fract_x
 _atom_site_fract_y
 _atom_site_fract_z
 _atom_site_occupancy
  Ni  Ni0  1  0.32777300  0.67222700  0.75000000  1
  Ni  Ni1  1  0.67222700  0.32777300  0.25000000  1
  Cu  Cu2  1  0.07722700  0.92277300  0.75000000  1
  Cu  Cu3  1  0.92277300  0.07722700  0.25000000  1
  C  C4  1  0.72440700  0.78845300  0.59662900  1
  C  C5  1  0.78845300  0.72440700  0.09662900  1
  C  C6  1  0.80525800  0.18433800  0.99730800  1
  C  C7  1  0.63038600  0.36961400  0.75000000  1
  C  C8  1  0.81566200  0.19474200  0.50269200  1
  C  C9  1  0.18433800  0.80525800  0.49730800  1
  C  C10  1  0.36961400  0.63038600  0.25000000  1
  C  C11  1  0.19474200  0.81566200  0.00269200  1
  C  C12  1  0.21154700  0.27559300  0.90337100  1
  C  C13  1  0.27559300  0.21154700  0.40337100  1
