# generated using pymatgen
data_Cu2NiC8
_symmetry_space_group_name_H-M   'P 1'
_cell_length_a   5.17342130
_cell_length_b   10.25841800
_cell_length_c   5.17341794
_cell_angle_alpha   89.99969427
_cell_angle_beta   119.37786902
_cell_angle_gamma   90.00017803
_symmetry_Int_Tables_number   1
_chemical_formula_structural   Cu2NiC8
_chemical_formula_sum   'Cu4 Ni2 C16'
_cell_volume   239.25170118
_cell_formula_units_Z   2
loop_
 _symmetry_equiv_pos_site_id
 _symmetry_equiv_pos_as_xyz
  1  'x, y, z'
loop_
 _atom_site_type_symbol
 _atom_site_label
 _atom_site_symmetry_multiplicity
 _atom_site_fract_x
 _atom_site_fract_y
 _atom_site_fract_z
 _atom_site_occupancy
  C  C0  1  0.62836200  0.75001400  0.12838600  1
  C  C1  1  0.87160900  0.24998400  0.37163600  1
  C  C2  1  0.12836300  0.74997500  0.62838500  1
  C  C3  1  0.37161300  0.25002200  0.87163500  1
  Ni  Ni4  1  0.00002300  0.00001100  0.99997800  1
  Ni  Ni5  1  0.50004700  0.50000000  0.49997000  1
  Cu  Cu6  1  0.66440300  0.00000200  0.33560000  1
  Cu  Cu7  1  0.16429000  0.50000000  0.83569800  1
  Cu  Cu8  1  0.83563800  0.50000000  0.16436400  1
  Cu  Cu9  1  0.33558800  0.00000100  0.66440100  1
  C  C10  1  0.17635800  0.59772500  0.17631200  1
  C  C11  1  0.32368800  0.09771500  0.32364200  1
  C  C12  1  0.67634700  0.90228600  0.67630700  1
  C  C13  1  0.82369800  0.40227900  0.82365100  1
  C  C14  1  0.68182900  0.10775900  0.01714200  1
  C  C15  1  0.31809500  0.89220000  0.98280400  1
  C  C16  1  0.51720400  0.39220500  0.18190600  1
  C  C17  1  0.81810100  0.60779100  0.48280200  1
  C  C18  1  0.98285700  0.89223500  0.31816400  1
  C  C19  1  0.18184000  0.39224200  0.51715200  1
  C  C20  1  0.48285600  0.60775800  0.81816500  1
  C  C21  1  0.01718900  0.10779700  0.68190000  1
