# generated using pymatgen
data_CuNiC9
_symmetry_space_group_name_H-M   'P 1'
_cell_length_a   6.24815300
_cell_length_b   5.24620400
_cell_length_c   18.36314849
_cell_angle_alpha   87.52387383
_cell_angle_beta   90.00000000
_cell_angle_gamma   90.00000000
_symmetry_Int_Tables_number   1
_chemical_formula_structural   CuNiC9
_chemical_formula_sum   'Cu4 Ni4 C36'
_cell_volume   601.36519654
_cell_formula_units_Z   4
loop_
 _symmetry_equiv_pos_site_id
 _symmetry_equiv_pos_as_xyz
  1  'x, y, z'
loop_
 _atom_site_type_symbol
 _atom_site_label
 _atom_site_symmetry_multiplicity
 _atom_site_fract_x
 _atom_site_fract_y
 _atom_site_fract_z
 _atom_site_occupancy
  C  C0  1  0.97204700  0.75866200  0.88065700  1
  C  C1  1  0.47204700  0.24133800  0.61934300  1
  C  C2  1  0.52795300  0.75866200  0.38065700  1
  C  C3  1  0.02795300  0.24133800  0.11934300  1
  C  C4  1  0.26669300  0.21698200  0.82767200  1
  C  C5  1  0.76669300  0.78301800  0.67232800  1
  C  C6  1  0.23330700  0.21698200  0.32767200  1
  C  C7  1  0.73330700  0.78301800  0.17232800  1
  Ni  Ni8  1  0.76019600  0.27753900  0.78257600  1
  Ni  Ni9  1  0.26019600  0.72246100  0.71742400  1
  Ni  Ni10  1  0.73980400  0.27753900  0.28257600  1
  Ni  Ni11  1  0.23980400  0.72246100  0.21742400  1
  Cu  Cu12  1  0.25457700  0.27400900  0.95786900  1
  Cu  Cu13  1  0.75457700  0.72599100  0.54213100  1
  Cu  Cu14  1  0.24542300  0.27400900  0.45786900  1
  Cu  Cu15  1  0.74542300  0.72599100  0.04213100  1
  C  C16  1  0.75196600  0.69379900  0.97640900  1
  C  C17  1  0.25790600  0.05088600  0.92715700  1
  C  C18  1  0.25761100  0.46145600  0.90660300  1
  C  C19  1  0.95406400  0.20815500  0.83269900  1
  C  C20  1  0.56966000  0.21431300  0.83381200  1
  C  C21  1  0.76764200  0.56776700  0.76165200  1
  C  C22  1  0.25290500  0.87428900  0.78695900  1
  C  C23  1  0.75290500  0.12571100  0.71304100  1
  C  C24  1  0.26764200  0.43223300  0.73834800  1
  C  C25  1  0.45406400  0.79184500  0.66730100  1
  C  C26  1  0.06966000  0.78568700  0.66618800  1
  C  C27  1  0.75761100  0.53854400  0.59339700  1
  C  C28  1  0.75790600  0.94911400  0.57284300  1
  C  C29  1  0.25196600  0.30620100  0.52359100  1
  C  C30  1  0.74803400  0.69379900  0.47640900  1
  C  C31  1  0.24209400  0.05088600  0.42715700  1
  C  C32  1  0.24238900  0.46145600  0.40660300  1
  C  C33  1  0.93034000  0.21431300  0.33381200  1
  C  C34  1  0.54593600  0.20815500  0.33269900  1
  C  C35  1  0.73235800  0.56776700  0.26165200  1
  C  C36  1  0.24709500  0.87428900  0.28695900  1
  C  C37  1  0.74709500  0.12571100  0.21304100  1
  C  C38  1  0.23235800  0.43223300  0.23834800  1
  C  C39  1  0.43034000  0.78568700  0.16618800  1
  C  C40  1  0.04593600  0.79184500  0.16730100  1
  C  C41  1  0.74238900  0.53854400  0.09339700  1
  C  C42  1  0.74209400  0.94911400  0.07284300  1
  C  C43  1  0.24803400  0.30620100  0.02359100  1
