# generated using pymatgen
data_Cu3NiC10
_symmetry_space_group_name_H-M   'P 1'
_cell_length_a   8.53033000
_cell_length_b   8.53033000
_cell_length_c   8.53033000
_cell_angle_alpha   90.00000000
_cell_angle_beta   90.00000000
_cell_angle_gamma   90.00000000
_symmetry_Int_Tables_number   1
_chemical_formula_structural   Cu3NiC10
_chemical_formula_sum   'Cu12 Ni4 C40'
_cell_volume   620.72251308
_cell_formula_units_Z   4
loop_
 _symmetry_equiv_pos_site_id
 _symmetry_equiv_pos_as_xyz
  1  'x, y, z'
loop_
 _atom_site_type_symbol
 _atom_site_label
 _atom_site_symmetry_multiplicity
 _atom_site_fract_x
 _atom_site_fract_y
 _atom_site_fract_z
 _atom_site_occupancy
  C  C0  1  0.99551300  0.99551300  0.99551300  1
  C  C1  1  0.25448700  0.25448700  0.25448700  1
  C  C2  1  0.24551300  0.74551300  0.75448700  1
  C  C3  1  0.50448700  0.00448700  0.49551300  1
  C  C4  1  0.49551300  0.50448700  0.00448700  1
  C  C5  1  0.75448700  0.24551300  0.74551300  1
  C  C6  1  0.74551300  0.75448700  0.24551300  1
  C  C7  1  0.00448700  0.49551300  0.50448700  1
  Ni  Ni8  1  0.12500000  0.87500000  0.37500000  1
  Ni  Ni9  1  0.37500000  0.12500000  0.87500000  1
  Ni  Ni10  1  0.62500000  0.62500000  0.62500000  1
  Ni  Ni11  1  0.87500000  0.37500000  0.12500000  1
  Cu  Cu12  1  0.12146600  0.12853400  0.62500000  1
  Cu  Cu13  1  0.12500000  0.37853400  0.87146600  1
  Cu  Cu14  1  0.12853400  0.62500000  0.12146600  1
  Cu  Cu15  1  0.37146600  0.37500000  0.62146600  1
  Cu  Cu16  1  0.37500000  0.62146600  0.37146600  1
  Cu  Cu17  1  0.37853400  0.87146600  0.12500000  1
  Cu  Cu18  1  0.62146600  0.37146600  0.37500000  1
  Cu  Cu19  1  0.62500000  0.12146600  0.12853400  1
  Cu  Cu20  1  0.62853400  0.87500000  0.87853400  1
  Cu  Cu21  1  0.87146600  0.12500000  0.37853400  1
  Cu  Cu22  1  0.87500000  0.87853400  0.62853400  1
  Cu  Cu23  1  0.87853400  0.62853400  0.87500000  1
  C  C24  1  0.11359500  0.11164100  0.38577400  1
  C  C25  1  0.11422600  0.88640500  0.61164100  1
  C  C26  1  0.11123900  0.61123900  0.88876100  1
  C  C27  1  0.13835900  0.13640500  0.86422600  1
  C  C28  1  0.11164100  0.38577400  0.11359500  1
  C  C29  1  0.13876100  0.36123900  0.63876100  1
  C  C30  1  0.13577400  0.63835900  0.36359500  1
  C  C31  1  0.13640500  0.86422600  0.13835900  1
  C  C32  1  0.36359500  0.13577400  0.63835900  1
  C  C33  1  0.36422600  0.36164100  0.86359500  1
  C  C34  1  0.36123900  0.63876100  0.13876100  1
  C  C35  1  0.38835900  0.61422600  0.61359500  1
  C  C36  1  0.36164100  0.86359500  0.36422600  1
  C  C37  1  0.38876100  0.38876100  0.38876100  1
  C  C38  1  0.38577400  0.11359500  0.11164100  1
  C  C39  1  0.38640500  0.88835900  0.88577400  1
  C  C40  1  0.61359500  0.38835900  0.61422600  1
  C  C41  1  0.61422600  0.61359500  0.38835900  1
  C  C42  1  0.61123900  0.88876100  0.11123900  1
  C  C43  1  0.63835900  0.36359500  0.13577400  1
  C  C44  1  0.61164100  0.11422600  0.88640500  1
  C  C45  1  0.63876100  0.13876100  0.36123900  1
  C  C46  1  0.63577400  0.86164100  0.63640500  1
  C  C47  1  0.63640500  0.63577400  0.86164100  1
  C  C48  1  0.86359500  0.36422600  0.36164100  1
  C  C49  1  0.86422600  0.13835900  0.13640500  1
  C  C50  1  0.86123900  0.86123900  0.86123900  1
  C  C51  1  0.88835900  0.88577400  0.38640500  1
  C  C52  1  0.86164100  0.63640500  0.63577400  1
  C  C53  1  0.88876100  0.11123900  0.61123900  1
  C  C54  1  0.88577400  0.38640500  0.88835900  1
  C  C55  1  0.88640500  0.61164100  0.11422600  1
