# generated using pymatgen
data_Cu6Ni4C15
_symmetry_space_group_name_H-M   'P 1'
_cell_length_a   5.97253814
_cell_length_b   13.12012400
_cell_length_c   6.41122053
_cell_angle_alpha   90.00000000
_cell_angle_beta   109.36714890
_cell_angle_gamma   90.00000000
_symmetry_Int_Tables_number   1
_chemical_formula_structural   Cu6Ni4C15
_chemical_formula_sum   'Cu12 Ni8 C30'
_cell_volume   473.95752304
_cell_formula_units_Z   2
loop_
 _symmetry_equiv_pos_site_id
 _symmetry_equiv_pos_as_xyz
  1  'x, y, z'
loop_
 _atom_site_type_symbol
 _atom_site_label
 _atom_site_symmetry_multiplicity
 _atom_site_fract_x
 _atom_site_fract_y
 _atom_site_fract_z
 _atom_site_occupancy
  C  C0  1  0.00000000  0.50000000  0.50000000  1
  C  C1  1  0.00000000  0.00000000  0.00000000  1
  C  C2  1  0.64128900  0.09605700  0.41557800  1
  C  C3  1  0.35871100  0.59605700  0.08442200  1
  C  C4  1  0.35871100  0.90394300  0.58442200  1
  C  C5  1  0.64128900  0.40394300  0.91557800  1
  C  C6  1  0.73407000  0.12302000  0.21275100  1
  C  C7  1  0.26593000  0.62302000  0.28724900  1
  C  C8  1  0.26593000  0.87698000  0.78724900  1
  C  C9  1  0.73407000  0.37698000  0.71275100  1
  C  C10  1  0.86098700  0.18552300  0.47535300  1
  C  C11  1  0.13901300  0.68552300  0.02464700  1
  C  C12  1  0.13901300  0.81447700  0.52464700  1
  C  C13  1  0.86098700  0.31447700  0.97535300  1
  C  C14  1  0.11157200  0.28614400  0.60156600  1
  C  C15  1  0.88842800  0.78614400  0.89843400  1
  C  C16  1  0.88842800  0.71385600  0.39843400  1
  C  C17  1  0.11157200  0.21385600  0.10156600  1
  C  C18  1  0.14133500  0.17612300  0.73005800  1
  C  C19  1  0.85866500  0.67612300  0.76994200  1
  C  C20  1  0.85866500  0.82387700  0.26994200  1
  C  C21  1  0.14133500  0.32387700  0.23005800  1
  C  C22  1  0.36015100  0.07684100  0.56820500  1
  C  C23  1  0.63984900  0.57684100  0.93179500  1
  C  C24  1  0.63984900  0.92315900  0.43179500  1
  C  C25  1  0.36015100  0.42315900  0.06820500  1
  C  C26  1  0.46446000  0.08248500  0.67342200  1
  C  C27  1  0.53554000  0.58248500  0.82657800  1
  C  C28  1  0.53554000  0.91751500  0.32657800  1
  C  C29  1  0.46446000  0.41751500  0.17342200  1
  Ni  Ni30  1  0.69764500  0.15219800  0.34537300  1
  Ni  Ni31  1  0.30235500  0.65219800  0.15462700  1
  Ni  Ni32  1  0.30235500  0.84780200  0.65462700  1
  Ni  Ni33  1  0.69764500  0.34780200  0.84537300  1
  Ni  Ni34  1  0.02980000  0.22560200  0.63696500  1
  Ni  Ni35  1  0.97020000  0.72560200  0.86303500  1
  Ni  Ni36  1  0.97020000  0.77439800  0.36303500  1
  Ni  Ni37  1  0.02980000  0.27439800  0.13696500  1
  Cu  Cu38  1  0.19009000  0.39601200  0.52719300  1
  Cu  Cu39  1  0.80991000  0.89601200  0.97280700  1
  Cu  Cu40  1  0.80991000  0.60398800  0.47280700  1
  Cu  Cu41  1  0.19009000  0.10398800  0.02719300  1
  Cu  Cu42  1  0.22586700  0.58137900  0.49191200  1
  Cu  Cu43  1  0.77413300  0.08137900  0.00808800  1
  Cu  Cu44  1  0.77413300  0.41862100  0.50808800  1
  Cu  Cu45  1  0.22586700  0.91862100  0.99191200  1
  Cu  Cu46  1  0.08813400  0.51257900  0.77793100  1
  Cu  Cu47  1  0.91186600  0.01257900  0.72206900  1
  Cu  Cu48  1  0.91186600  0.48742100  0.22206900  1
  Cu  Cu49  1  0.08813400  0.98742100  0.27793100  1
