# generated using pymatgen
data_Cu3(Ni3C7)2
_symmetry_space_group_name_H-M   'P 1'
_cell_length_a   9.04317363
_cell_length_b   9.04317363
_cell_length_c   9.04317405
_cell_angle_alpha   65.94271163
_cell_angle_beta   65.94271163
_cell_angle_gamma   65.94270995
_symmetry_Int_Tables_number   1
_chemical_formula_structural   Cu3(Ni3C7)2
_chemical_formula_sum   'Cu6 Ni12 C28'
_cell_volume   590.22185414
_cell_formula_units_Z   2
loop_
 _symmetry_equiv_pos_site_id
 _symmetry_equiv_pos_as_xyz
  1  'x, y, z'
loop_
 _atom_site_type_symbol
 _atom_site_label
 _atom_site_symmetry_multiplicity
 _atom_site_fract_x
 _atom_site_fract_y
 _atom_site_fract_z
 _atom_site_occupancy
  C  C0  1  0.15820300  0.15820300  0.15820300  1
  C  C1  1  0.39207000  0.39207000  0.39207000  1
  C  C2  1  0.89207000  0.89207000  0.89207000  1
  C  C3  1  0.65820300  0.65820300  0.65820300  1
  Ni  Ni4  1  0.92133200  0.20588500  0.88373900  1
  Ni  Ni5  1  0.88609100  0.24414400  0.71207300  1
  Ni  Ni6  1  0.74414400  0.38609100  0.21207300  1
  Ni  Ni7  1  0.70588500  0.42133200  0.38373900  1
  Ni  Ni8  1  0.38609100  0.21207300  0.74414400  1
  Ni  Ni9  1  0.42133200  0.38373900  0.70588500  1
  Ni  Ni10  1  0.88373900  0.92133200  0.20588500  1
  Ni  Ni11  1  0.71207300  0.88609100  0.24414400  1
  Ni  Ni12  1  0.38373900  0.70588500  0.42133200  1
  Ni  Ni13  1  0.24414400  0.71207300  0.88609100  1
  Ni  Ni14  1  0.21207300  0.74414400  0.38609100  1
  Ni  Ni15  1  0.20588500  0.88373900  0.92133200  1
  Cu  Cu16  1  0.99899400  0.45874100  0.37348700  1
  Cu  Cu17  1  0.95874100  0.49899400  0.87348700  1
  Cu  Cu18  1  0.45874100  0.37348700  0.99899400  1
  Cu  Cu19  1  0.87348700  0.95874100  0.49899400  1
  Cu  Cu20  1  0.49899400  0.87348700  0.95874100  1
  Cu  Cu21  1  0.37348700  0.99899400  0.45874100  1
  C  C22  1  0.90976800  0.15336700  0.81411100  1
  C  C23  1  0.96519000  0.30681700  0.03226800  1
  C  C24  1  0.48407300  0.14252700  0.39862000  1
  C  C25  1  0.80681700  0.46519000  0.53226800  1
  C  C26  1  0.35437400  0.02273100  0.26861400  1
  C  C27  1  0.30681700  0.03226800  0.96519000  1
  C  C28  1  0.89862000  0.64252700  0.98407300  1
  C  C29  1  0.76861400  0.52273100  0.85437400  1
  C  C30  1  0.65336700  0.40976800  0.31411100  1
  C  C31  1  0.40976800  0.31411100  0.65336700  1
  C  C32  1  0.85437400  0.76861400  0.52273100  1
  C  C33  1  0.98407300  0.89862000  0.64252700  1
  C  C34  1  0.46519000  0.53226800  0.80681700  1
  C  C35  1  0.39862000  0.48407300  0.14252700  1
  C  C36  1  0.26861400  0.35437400  0.02273100  1
  C  C37  1  0.81411100  0.90976800  0.15336700  1
  C  C38  1  0.02273100  0.26861400  0.35437400  1
  C  C39  1  0.14252700  0.39862000  0.48407300  1
  C  C40  1  0.53226800  0.80681700  0.46519000  1
  C  C41  1  0.31411100  0.65336700  0.40976800  1
  C  C42  1  0.52273100  0.85437400  0.76861400  1
  C  C43  1  0.64252700  0.98407300  0.89862000  1
  C  C44  1  0.15336700  0.81411100  0.90976800  1
  C  C45  1  0.03226800  0.96519000  0.30681700  1
