# generated using pymatgen
data_Cu5NiC12
_symmetry_space_group_name_H-M   'P 1'
_cell_length_a   14.05400200
_cell_length_b   9.53885700
_cell_length_c   13.10539512
_cell_angle_alpha   52.81410077
_cell_angle_beta   90.00000000
_cell_angle_gamma   90.00000000
_symmetry_Int_Tables_number   1
_chemical_formula_structural   Cu5NiC12
_chemical_formula_sum   'Cu20 Ni4 C48'
_cell_volume   1399.68293696
_cell_formula_units_Z   4
loop_
 _symmetry_equiv_pos_site_id
 _symmetry_equiv_pos_as_xyz
  1  'x, y, z'
loop_
 _atom_site_type_symbol
 _atom_site_label
 _atom_site_symmetry_multiplicity
 _atom_site_fract_x
 _atom_site_fract_y
 _atom_site_fract_z
 _atom_site_occupancy
  C  C0  1  0.88145900  0.34313200  0.12345500  1
  C  C1  1  0.61854100  0.34313200  0.62345500  1
  C  C2  1  0.11854100  0.65686800  0.87654500  1
  C  C3  1  0.38145900  0.65686800  0.37654500  1
  C  C4  1  0.88667100  0.89619400  0.48825100  1
  C  C5  1  0.61332900  0.89619400  0.98825100  1
  C  C6  1  0.11332900  0.10380600  0.51174900  1
  C  C7  1  0.38667100  0.10380600  0.01174900  1
  C  C8  1  0.84490500  0.72534300  0.49670200  1
  C  C9  1  0.65509500  0.72534300  0.99670200  1
  C  C10  1  0.15509500  0.27465700  0.50329800  1
  C  C11  1  0.34490500  0.27465700  0.00329800  1
  C  C12  1  0.10034600  0.73222000  0.36675200  1
  C  C13  1  0.39965400  0.73222000  0.86675200  1
  C  C14  1  0.89965400  0.26778000  0.63324800  1
  C  C15  1  0.60034600  0.26778000  0.13324800  1
  C  C16  1  0.87050700  0.95355300  0.87208800  1
  C  C17  1  0.62949300  0.95355300  0.37208800  1
  C  C18  1  0.12949300  0.04644700  0.12791200  1
  C  C19  1  0.37050700  0.04644700  0.62791200  1
  C  C20  1  0.76182600  0.50873500  0.85466500  1
  C  C21  1  0.73817400  0.50873500  0.35466500  1
  C  C22  1  0.23817400  0.49126500  0.14533500  1
  C  C23  1  0.26182600  0.49126500  0.64533500  1
  C  C24  1  0.05830400  0.97583800  0.70245600  1
  C  C25  1  0.44169600  0.97583800  0.20245600  1
  C  C26  1  0.94169600  0.02416200  0.29754400  1
  C  C27  1  0.55830400  0.02416200  0.79754400  1
  C  C28  1  0.01446200  0.48371500  0.52930600  1
  C  C29  1  0.48553800  0.48371500  0.02930600  1
  C  C30  1  0.98553800  0.51628500  0.47069400  1
  C  C31  1  0.51446200  0.51628500  0.97069400  1
  C  C32  1  0.76012500  0.59811100  0.83982000  1
  C  C33  1  0.73987500  0.59811100  0.33982000  1
  C  C34  1  0.23987500  0.40188900  0.16018000  1
  C  C35  1  0.26012500  0.40188900  0.66018000  1
  Ni  Ni36  1  0.83241300  0.02683700  0.15973600  1
  Ni  Ni37  1  0.66758700  0.02683700  0.65973600  1
  Ni  Ni38  1  0.16758700  0.97316300  0.84026400  1
  Ni  Ni39  1  0.33241300  0.97316300  0.34026400  1
  Cu  Cu40  1  0.84407400  0.88577900  0.27227300  1
  Cu  Cu41  1  0.65592600  0.88577900  0.77227300  1
  Cu  Cu42  1  0.15592600  0.11422100  0.72772700  1
  Cu  Cu43  1  0.34407400  0.11422100  0.22772700  1
  Cu  Cu44  1  0.85149200  0.21155700  0.06978200  1
  Cu  Cu45  1  0.64850800  0.21155700  0.56978200  1
  Cu  Cu46  1  0.14850800  0.78844300  0.93021800  1
  Cu  Cu47  1  0.35149200  0.78844300  0.43021800  1
  Cu  Cu48  1  0.91817900  0.89781200  0.33842200  1
  Cu  Cu49  1  0.58182100  0.89781200  0.83842200  1
  Cu  Cu50  1  0.08182100  0.10218800  0.66157800  1
  Cu  Cu51  1  0.41817900  0.10218800  0.16157800  1
  Cu  Cu52  1  0.59840300  0.80825600  0.96974600  1
  Cu  Cu53  1  0.90159700  0.80825600  0.46974600  1
  Cu  Cu54  1  0.40159700  0.19174400  0.03025400  1
  Cu  Cu55  1  0.09840300  0.19174400  0.53025400  1
  Cu  Cu56  1  0.77944300  0.12938600  0.05358200  1
  Cu  Cu57  1  0.72055700  0.12938600  0.55358200  1
  Cu  Cu58  1  0.22055700  0.87061400  0.94641800  1
  Cu  Cu59  1  0.27944300  0.87061400  0.44641800  1
  C  C60  1  0.89121300  0.79396400  0.97036000  1
  C  C61  1  0.60878700  0.79396400  0.47036000  1
  C  C62  1  0.10878700  0.20603600  0.02964000  1
  C  C63  1  0.39121300  0.20603600  0.52964000  1
  C  C64  1  0.92198200  0.34553100  0.27527600  1
  C  C65  1  0.57801800  0.34553100  0.77527600  1
  C  C66  1  0.07801800  0.65446900  0.72472400  1
  C  C67  1  0.42198200  0.65446900  0.22472400  1
  C  C68  1  0.64744600  0.26469400  0.21918000  1
  C  C69  1  0.85255400  0.26469400  0.71918000  1
  C  C70  1  0.35255400  0.73530600  0.78082000  1
  C  C71  1  0.14744600  0.73530600  0.28082000  1
