# generated using pymatgen
data_CuNiC
_symmetry_space_group_name_H-M   'P 1'
_cell_length_a   3.09667000
_cell_length_b   14.21629700
_cell_length_c   14.24045099
_cell_angle_alpha   89.64980455
_cell_angle_beta   90.00000000
_cell_angle_gamma   90.00000000
_symmetry_Int_Tables_number   1
_chemical_formula_structural   CuNiC
_chemical_formula_sum   'Cu18 Ni18 C18'
_cell_volume   626.89823363
_cell_formula_units_Z   18
loop_
 _symmetry_equiv_pos_site_id
 _symmetry_equiv_pos_as_xyz
  1  'x, y, z'
loop_
 _atom_site_type_symbol
 _atom_site_label
 _atom_site_symmetry_multiplicity
 _atom_site_fract_x
 _atom_site_fract_y
 _atom_site_fract_z
 _atom_site_occupancy
  C  C0  1  0.00000000  0.99617700  0.98856500  1
  C  C1  1  0.00000000  0.99693100  0.34076300  1
  C  C2  1  0.00000000  0.98925000  0.66347400  1
  C  C3  1  0.50000000  0.84042400  0.18868700  1
  C  C4  1  0.50000000  0.84600100  0.49878100  1
  C  C5  1  0.50000000  0.84706700  0.83061700  1
  C  C6  1  0.00000000  0.66243900  0.00589700  1
  C  C7  1  0.00000000  0.66459900  0.32087300  1
  C  C8  1  0.00000000  0.65383600  0.66374400  1
  C  C9  1  0.50000000  0.49736600  0.51128600  1
  C  C10  1  0.50000000  0.51115900  0.16663200  1
  C  C11  1  0.50000000  0.49815100  0.81648200  1
  C  C12  1  0.00000000  0.32089500  0.99602000  1
  C  C13  1  0.00000000  0.31893200  0.33399100  1
  C  C14  1  0.00000000  0.34191500  0.66634200  1
  C  C15  1  0.50000000  0.18045200  0.16461200  1
  C  C16  1  0.50000000  0.16558200  0.48497600  1
  C  C17  1  0.50000000  0.16482500  0.84560900  1
  Ni  Ni18  1  0.50000000  0.94259900  0.26819900  1
  Ni  Ni19  1  0.50000000  0.93585800  0.60298900  1
  Ni  Ni20  1  0.50000000  0.92885700  0.93951800  1
  Ni  Ni21  1  0.00000000  0.89079800  0.43423800  1
  Ni  Ni22  1  0.00000000  0.89907800  0.77023200  1
  Ni  Ni23  1  0.00000000  0.76666500  0.23051900  1
  Ni  Ni24  1  0.50000000  0.59672600  0.27036600  1
  Ni  Ni25  1  0.50000000  0.60229800  0.60034800  1
  Ni  Ni26  1  0.00000000  0.56805600  0.09861200  1
  Ni  Ni27  1  0.00000000  0.56722400  0.77222200  1
  Ni  Ni28  1  0.00000000  0.43174700  0.56212200  1
  Ni  Ni29  1  0.50000000  0.39345700  0.73280400  1
  Ni  Ni30  1  0.50000000  0.27025000  0.26845600  1
  Ni  Ni31  1  0.50000000  0.27451200  0.92858200  1
  Ni  Ni32  1  0.00000000  0.23258200  0.09876300  1
  Ni  Ni33  1  0.00000000  0.23689800  0.44101000  1
  Ni  Ni34  1  0.00000000  0.10148700  0.89901800  1
  Ni  Ni35  1  0.50000000  0.06521200  0.39964500  1
  Cu  Cu36  1  0.00000000  0.89803100  0.10194700  1
  Cu  Cu37  1  0.00000000  0.76683000  0.56984000  1
  Cu  Cu38  1  0.00000000  0.76016600  0.90034900  1
  Cu  Cu39  1  0.50000000  0.73445300  0.05925400  1
  Cu  Cu40  1  0.50000000  0.73198800  0.73390600  1
  Cu  Cu41  1  0.50000000  0.72453900  0.40260200  1
  Cu  Cu42  1  0.50000000  0.60356400  0.93654900  1
  Cu  Cu43  1  0.00000000  0.56570600  0.43482500  1
  Cu  Cu44  1  0.00000000  0.43553200  0.22801100  1
  Cu  Cu45  1  0.00000000  0.44185400  0.90384800  1
  Cu  Cu46  1  0.50000000  0.40157300  0.06601300  1
  Cu  Cu47  1  0.50000000  0.40497900  0.39378900  1
  Cu  Cu48  1  0.50000000  0.26430500  0.60548000  1
  Cu  Cu49  1  0.00000000  0.22754400  0.76401800  1
  Cu  Cu50  1  0.00000000  0.10498700  0.22669400  1
  Cu  Cu51  1  0.00000000  0.10354800  0.57020900  1
  Cu  Cu52  1  0.50000000  0.06162400  0.06703600  1
  Cu  Cu53  1  0.50000000  0.06847100  0.73063500  1
