# generated using pymatgen
data_CuNi3C17
_symmetry_space_group_name_H-M   'P 1'
_cell_length_a   5.54799700
_cell_length_b   11.08620600
_cell_length_c   17.16234702
_cell_angle_alpha   80.95824549
_cell_angle_beta   90.00000000
_cell_angle_gamma   90.00000000
_symmetry_Int_Tables_number   1
_chemical_formula_structural   CuNi3C17
_chemical_formula_sum   'Cu4 Ni12 C68'
_cell_volume   1042.47469564
_cell_formula_units_Z   4
loop_
 _symmetry_equiv_pos_site_id
 _symmetry_equiv_pos_as_xyz
  1  'x, y, z'
loop_
 _atom_site_type_symbol
 _atom_site_label
 _atom_site_symmetry_multiplicity
 _atom_site_fract_x
 _atom_site_fract_y
 _atom_site_fract_z
 _atom_site_occupancy
  C  C0  1  0.24253200  0.00716800  0.50055400  1
  C  C1  1  0.75746800  0.99283200  0.49944600  1
  C  C2  1  0.24253200  0.49283200  0.49944600  1
  C  C3  1  0.77759200  0.25000000  0.50000000  1
  C  C4  1  0.75746800  0.50716800  0.50055400  1
  C  C5  1  0.22240800  0.75000000  0.50000000  1
  C  C6  1  0.50685800  0.05546500  0.76308800  1
  C  C7  1  0.50685800  0.44453500  0.23691200  1
  C  C8  1  0.99379700  0.18942700  0.23559500  1
  C  C9  1  0.98850300  0.25000000  0.00000000  1
  C  C10  1  0.49314200  0.55546500  0.76308800  1
  C  C11  1  0.99379700  0.31057300  0.76440500  1
  C  C12  1  0.49314200  0.94453500  0.23691200  1
  C  C13  1  0.01149700  0.75000000  0.00000000  1
  C  C14  1  0.00620300  0.68942700  0.23559500  1
  C  C15  1  0.00620300  0.81057300  0.76440500  1
  Ni  Ni16  1  0.49745000  0.22153500  0.11444400  1
  Ni  Ni17  1  0.49745000  0.27846500  0.88555600  1
  Ni  Ni18  1  0.00176500  0.02830400  0.88487200  1
  Ni  Ni19  1  0.00412000  0.08950300  0.63687700  1
  Ni  Ni20  1  0.00176500  0.47169600  0.11512800  1
  Ni  Ni21  1  0.50255000  0.72153500  0.11444400  1
  Ni  Ni22  1  0.00412000  0.41049700  0.36312300  1
  Ni  Ni23  1  0.50255000  0.77846500  0.88555600  1
  Ni  Ni24  1  0.99823500  0.52830400  0.88487200  1
  Ni  Ni25  1  0.99588000  0.58950300  0.63687700  1
  Ni  Ni26  1  0.99823500  0.97169600  0.11512800  1
  Ni  Ni27  1  0.99588000  0.91049700  0.36312300  1
  Cu  Cu28  1  0.49592000  0.16214500  0.36501200  1
  Cu  Cu29  1  0.49592000  0.33785500  0.63498800  1
  Cu  Cu30  1  0.50408000  0.66214500  0.36501200  1
  Cu  Cu31  1  0.50408000  0.83785500  0.63498800  1
  C  C32  1  0.23950200  0.10285400  0.11915900  1
  C  C33  1  0.24552000  0.04253600  0.34252600  1
  C  C34  1  0.25040200  0.29449800  0.33398700  1
  C  C35  1  0.24481600  0.34102400  0.12600800  1
  C  C36  1  0.24481600  0.15897600  0.87399200  1
  C  C37  1  0.51183000  0.18614000  0.23099800  1
  C  C38  1  0.25040200  0.20550200  0.66601300  1
  C  C39  1  0.51367800  0.12837300  0.47277700  1
  C  C40  1  0.76047600  0.09985800  0.12010200  1
  C  C41  1  0.50496300  0.25000000  0.00000000  1
  C  C42  1  0.00000000  0.00000000  0.00000000  1
  C  C43  1  0.74608100  0.03854300  0.34121100  1
  C  C44  1  0.76347600  0.33858900  0.12070800  1
  C  C45  1  0.24552000  0.45746400  0.65747400  1
  C  C46  1  0.25391900  0.53854300  0.34121100  1
  C  C47  1  0.23952400  0.59985800  0.12010200  1
  C  C48  1  0.51183000  0.31386000  0.76900200  1
  C  C49  1  0.23950200  0.39714600  0.88084100  1
  C  C50  1  0.76347600  0.16141100  0.87929200  1
  C  C51  1  0.51367800  0.37162700  0.52722300  1
  C  C52  1  0.75085600  0.20803800  0.65827600  1
  C  C53  1  0.75085600  0.29196200  0.34172400  1
  C  C54  1  0.98250900  0.05023900  0.76967400  1
  C  C55  1  0.99258300  0.11092000  0.53399600  1
  C  C56  1  0.48817000  0.68614000  0.23099800  1
  C  C57  1  0.98250900  0.44976100  0.23032600  1
  C  C58  1  0.23652400  0.66141100  0.87929200  1
  C  C59  1  0.48632200  0.62837300  0.47277700  1
  C  C60  1  0.75448000  0.54253600  0.34252600  1
  C  C61  1  0.99258300  0.38908000  0.46600400  1
  C  C62  1  0.76047600  0.40014200  0.87989800  1
  C  C63  1  0.24914400  0.70803800  0.65827600  1
  C  C64  1  0.24914400  0.79196200  0.34172400  1
  C  C65  1  0.23652400  0.83858900  0.12070800  1
  C  C66  1  0.00000000  0.50000000  0.00000000  1
  C  C67  1  0.76049800  0.60285400  0.11915900  1
  C  C68  1  0.74608100  0.46145700  0.65878900  1
  C  C69  1  0.49503700  0.75000000  0.00000000  1
  C  C70  1  0.75518400  0.84102400  0.12600800  1
  C  C71  1  0.23952400  0.90014200  0.87989800  1
  C  C72  1  0.25391900  0.96145700  0.65878900  1
  C  C73  1  0.48817000  0.81386000  0.76900200  1
  C  C74  1  0.01749100  0.55023900  0.76967400  1
  C  C75  1  0.48632200  0.87162700  0.52722300  1
  C  C76  1  0.00741700  0.61092000  0.53399600  1
  C  C77  1  0.75518400  0.65897600  0.87399200  1
  C  C78  1  0.74959800  0.70550200  0.66601300  1
  C  C79  1  0.74959800  0.79449800  0.33398700  1
  C  C80  1  0.76049800  0.89714600  0.88084100  1
  C  C81  1  0.00741700  0.88908000  0.46600400  1
  C  C82  1  0.01749100  0.94976100  0.23032600  1
  C  C83  1  0.75448000  0.95746400  0.65747400  1
