# generated using pymatgen
data_Cu7NiC5
_symmetry_space_group_name_H-M   'P 1'
_cell_length_a   5.21009446
_cell_length_b   13.37135800
_cell_length_c   8.88406338
_cell_angle_alpha   90.00148076
_cell_angle_beta   88.69745306
_cell_angle_gamma   89.99962013
_symmetry_Int_Tables_number   1
_chemical_formula_structural   Cu7NiC5
_chemical_formula_sum   'Cu28 Ni4 C20'
_cell_volume   618.75757067
_cell_formula_units_Z   4
loop_
 _symmetry_equiv_pos_site_id
 _symmetry_equiv_pos_as_xyz
  1  'x, y, z'
loop_
 _atom_site_type_symbol
 _atom_site_label
 _atom_site_symmetry_multiplicity
 _atom_site_fract_x
 _atom_site_fract_y
 _atom_site_fract_z
 _atom_site_occupancy
  C  C0  1  0.77261500  0.12502900  0.08137500  1
  C  C1  1  0.77263100  0.62499600  0.08137400  1
  C  C2  1  0.22737200  0.37496700  0.91862700  1
  C  C3  1  0.22736400  0.87500300  0.91862500  1
  C  C4  1  0.25411900  0.00409200  0.27242600  1
  C  C5  1  0.25411300  0.50406100  0.27243800  1
  C  C6  1  0.25407900  0.24594400  0.27242600  1
  C  C7  1  0.25406600  0.74593800  0.27244500  1
  C  C8  1  0.74588500  0.49590800  0.72757900  1
  C  C9  1  0.74587900  0.99593800  0.72756700  1
  C  C10  1  0.74590900  0.25405400  0.72758100  1
  C  C11  1  0.74594500  0.75405900  0.72756100  1
  C  C12  1  0.77883300  0.87510500  0.34770300  1
  C  C13  1  0.22122200  0.62489700  0.65227400  1
  C  C14  1  0.77885500  0.37488700  0.34778400  1
  C  C15  1  0.22112600  0.12514000  0.65224300  1
  C  C16  1  0.71521700  0.12499900  0.41621700  1
  C  C17  1  0.71525700  0.62499100  0.41618100  1
  C  C18  1  0.28477600  0.37499900  0.58378400  1
  C  C19  1  0.28475600  0.87500900  0.58381700  1
  Ni  Ni20  1  0.71609200  0.37498500  0.06383300  1
  Ni  Ni21  1  0.71607300  0.87500400  0.06381700  1
  Ni  Ni22  1  0.28390300  0.12501300  0.93616800  1
  Ni  Ni23  1  0.28392200  0.62499700  0.93617800  1
  Cu  Cu24  1  0.94220500  0.37498000  0.12382100  1
  Cu  Cu25  1  0.94218900  0.87501400  0.12381700  1
  Cu  Cu26  1  0.05778400  0.12501900  0.87617800  1
  Cu  Cu27  1  0.05781500  0.62498600  0.87617300  1
  Cu  Cu28  1  0.30858600  0.12500900  0.08042200  1
  Cu  Cu29  1  0.30858100  0.62498500  0.08043200  1
  Cu  Cu30  1  0.69139600  0.37499100  0.91957800  1
  Cu  Cu31  1  0.69140500  0.87501600  0.91956400  1
  Cu  Cu32  1  0.51584900  0.37497400  0.15498100  1
  Cu  Cu33  1  0.51584200  0.87500000  0.15496100  1
  Cu  Cu34  1  0.48414000  0.12502500  0.84502100  1
  Cu  Cu35  1  0.48416400  0.62500000  0.84503900  1
  Cu  Cu36  1  0.14161800  0.37500300  0.43334500  1
  Cu  Cu37  1  0.14160600  0.87504300  0.43331800  1
  Cu  Cu38  1  0.85837300  0.12499600  0.56665900  1
  Cu  Cu39  1  0.85840300  0.62495500  0.56668000  1
  Cu  Cu40  1  0.41934100  0.12507200  0.45053500  1
  Cu  Cu41  1  0.41934900  0.62501500  0.45055500  1
  Cu  Cu42  1  0.58064800  0.37492400  0.54946700  1
  Cu  Cu43  1  0.58066000  0.87498500  0.54943800  1
  Cu  Cu44  1  0.78588000  0.03212600  0.31746300  1
  Cu  Cu45  1  0.78593000  0.53207200  0.31746000  1
  Cu  Cu46  1  0.78613100  0.21786300  0.31745500  1
  Cu  Cu47  1  0.78610600  0.71787400  0.31746200  1
  Cu  Cu48  1  0.21387000  0.28213700  0.68254500  1
  Cu  Cu49  1  0.21391300  0.78212400  0.68253300  1
  Cu  Cu50  1  0.21413000  0.46787000  0.68253400  1
  Cu  Cu51  1  0.21407600  0.96792800  0.68254200  1
