# generated using pymatgen
data_Cu(NiC)2
_symmetry_space_group_name_H-M   'P 1'
_cell_length_a   3.12381800
_cell_length_b   5.57555700
_cell_length_c   13.84090700
_cell_angle_alpha   90.00000000
_cell_angle_beta   90.00000000
_cell_angle_gamma   90.00000000
_symmetry_Int_Tables_number   1
_chemical_formula_structural   Cu(NiC)2
_chemical_formula_sum   'Cu4 Ni8 C8'
_cell_volume   241.06742762
_cell_formula_units_Z   4
loop_
 _symmetry_equiv_pos_site_id
 _symmetry_equiv_pos_as_xyz
  1  'x, y, z'
loop_
 _atom_site_type_symbol
 _atom_site_label
 _atom_site_symmetry_multiplicity
 _atom_site_fract_x
 _atom_site_fract_y
 _atom_site_fract_z
 _atom_site_occupancy
  C  C0  1  0.75000000  0.69704400  0.08047900  1
  C  C1  1  0.75000000  0.21194800  0.19641100  1
  C  C2  1  0.25000000  0.71194800  0.30358900  1
  C  C3  1  0.25000000  0.19704400  0.41952100  1
  C  C4  1  0.75000000  0.80295600  0.58047900  1
  C  C5  1  0.75000000  0.28805200  0.69641100  1
  C  C6  1  0.25000000  0.78805200  0.80358900  1
  C  C7  1  0.25000000  0.30295600  0.91952100  1
  Ni  Ni8  1  0.25000000  0.94222800  0.15265200  1
  Ni  Ni9  1  0.25000000  0.48797000  0.17098900  1
  Ni  Ni10  1  0.75000000  0.98797000  0.32901100  1
  Ni  Ni11  1  0.75000000  0.44222800  0.34734800  1
  Ni  Ni12  1  0.25000000  0.55777200  0.65265200  1
  Ni  Ni13  1  0.25000000  0.01203000  0.67098900  1
  Ni  Ni14  1  0.75000000  0.51203000  0.82901100  1
  Ni  Ni15  1  0.75000000  0.05777200  0.84734800  1
  Cu  Cu16  1  0.75000000  0.30508500  0.02692500  1
  Cu  Cu17  1  0.25000000  0.80508500  0.47307500  1
  Cu  Cu18  1  0.75000000  0.19491500  0.52692500  1
  Cu  Cu19  1  0.25000000  0.69491500  0.97307500  1
