# generated using pymatgen
data_Cu2Ni3C23
_symmetry_space_group_name_H-M   'P 1'
_cell_length_a   5.87056000
_cell_length_b   5.87929688
_cell_length_c   9.72805911
_cell_angle_alpha   89.88032590
_cell_angle_beta   90.40658423
_cell_angle_gamma   119.72189549
_symmetry_Int_Tables_number   1
_chemical_formula_structural   Cu2Ni3C23
_chemical_formula_sum   'Cu2 Ni3 C23'
_cell_volume   291.58184157
_cell_formula_units_Z   1
loop_
 _symmetry_equiv_pos_site_id
 _symmetry_equiv_pos_as_xyz
  1  'x, y, z'
loop_
 _atom_site_type_symbol
 _atom_site_label
 _atom_site_symmetry_multiplicity
 _atom_site_fract_x
 _atom_site_fract_y
 _atom_site_fract_z
 _atom_site_occupancy
  C  C0  1  0.32732400  0.67076500  0.10941800  1
  C  C1  1  0.00744100  0.00102100  0.00270600  1
  C  C2  1  0.00713900  0.99362600  0.50149700  1
  C  C3  1  0.66248800  0.33315400  0.60696900  1
  C  C4  1  0.65925500  0.82293300  0.78297000  1
  C  C5  1  0.15601800  0.33576500  0.78544500  1
  C  C6  1  0.82726300  0.16769400  0.28607000  1
  Ni  Ni7  1  0.17314600  0.83565100  0.78642700  1
  Ni  Ni8  1  0.82945500  0.66210700  0.28473100  1
  Ni  Ni9  1  0.33547700  0.16856500  0.28495100  1
  Cu  Cu10  1  0.33506900  0.66499400  0.50780700  1
  Cu  Cu11  1  0.66745900  0.33700500  0.01061200  1
  C  C12  1  0.68494300  0.84045300  0.39414200  1
  C  C13  1  0.48535100  0.51919800  0.67073400  1
  C  C14  1  0.33473400  0.66930400  0.89553800  1
  C  C15  1  0.00492500  0.99689700  0.68655700  1
  C  C16  1  0.00107200  0.99493200  0.18784300  1
  C  C17  1  0.15927900  0.31406900  0.39404900  1
  C  C18  1  0.48082000  0.96655800  0.66918400  1
  C  C19  1  0.03497800  0.52045000  0.66782500  1
  C  C20  1  0.84550300  0.16373700  0.89386800  1
  C  C21  1  0.16048200  0.83895900  0.39044900  1
  C  C22  1  0.96095800  0.48354200  0.16989100  1
  C  C23  1  0.51377700  0.03547900  0.16975500  1
  C  C24  1  0.66277100  0.33691600  0.39300400  1
  C  C25  1  0.84932600  0.68606600  0.89430600  1
  C  C26  1  0.51305000  0.48295500  0.17166800  1
  C  C27  1  0.32079900  0.15750400  0.89374300  1
