# generated using pymatgen
data_Cu6Ni3C2
_symmetry_space_group_name_H-M   'P 1'
_cell_length_a   11.30679714
_cell_length_b   11.30679714
_cell_length_c   11.30679714
_cell_angle_alpha   90.00000000
_cell_angle_beta   90.00000000
_cell_angle_gamma   90.00000000
_symmetry_Int_Tables_number   1
_chemical_formula_structural   Cu6Ni3C2
_chemical_formula_sum   'Cu48 Ni24 C16'
_cell_volume   1445.50234695
_cell_formula_units_Z   8
loop_
 _symmetry_equiv_pos_site_id
 _symmetry_equiv_pos_as_xyz
  1  'x, y, z'
loop_
 _atom_site_type_symbol
 _atom_site_label
 _atom_site_symmetry_multiplicity
 _atom_site_fract_x
 _atom_site_fract_y
 _atom_site_fract_z
 _atom_site_occupancy
  C  C0  1  0.50000000  0.50000000  0.00000000  1
  C  C1  1  0.50000000  0.00000000  0.50000000  1
  C  C2  1  0.25000000  0.75000000  0.75000000  1
  C  C3  1  0.75000000  0.25000000  0.25000000  1
  C  C4  1  0.75000000  0.25000000  0.75000000  1
  C  C5  1  0.00000000  0.00000000  0.00000000  1
  C  C6  1  0.75000000  0.75000000  0.25000000  1
  C  C7  1  0.25000000  0.75000000  0.25000000  1
  C  C8  1  0.00000000  0.50000000  0.50000000  1
  C  C9  1  0.25000000  0.25000000  0.75000000  1
  C  C10  1  0.25000000  0.25000000  0.25000000  1
  C  C11  1  0.75000000  0.75000000  0.75000000  1
  C  C12  1  0.00000000  0.00000000  0.50000000  1
  C  C13  1  0.50000000  0.00000000  0.00000000  1
  C  C14  1  0.00000000  0.50000000  0.00000000  1
  C  C15  1  0.50000000  0.50000000  0.50000000  1
  Ni  Ni16  1  0.50784230  0.50669179  0.68524169  1
  Ni  Ni17  1  0.81475831  0.99215770  0.50669179  1
  Ni  Ni18  1  0.68524169  0.99215770  0.99330821  1
  Ni  Ni19  1  0.50669179  0.81475831  0.99215770  1
  Ni  Ni20  1  0.99215770  0.99330821  0.68524169  1
  Ni  Ni21  1  0.00669179  0.31475831  0.00784230  1
  Ni  Ni22  1  0.31475831  0.00784230  0.00669179  1
  Ni  Ni23  1  0.81475831  0.50784230  0.99330821  1
  Ni  Ni24  1  0.50669179  0.68524169  0.50784230  1
  Ni  Ni25  1  0.00784230  0.49330821  0.18524169  1
  Ni  Ni26  1  0.99330821  0.81475831  0.50784230  1
  Ni  Ni27  1  0.49215770  0.49330821  0.31475831  1
  Ni  Ni28  1  0.50784230  0.99330821  0.81475831  1
  Ni  Ni29  1  0.00669179  0.18524169  0.49215770  1
  Ni  Ni30  1  0.68524169  0.50784230  0.50669179  1
  Ni  Ni31  1  0.49330821  0.18524169  0.00784230  1
  Ni  Ni32  1  0.49330821  0.31475831  0.49215770  1
  Ni  Ni33  1  0.18524169  0.00784230  0.49330821  1
  Ni  Ni34  1  0.99330821  0.68524169  0.99215770  1
  Ni  Ni35  1  0.99215770  0.50669179  0.81475831  1
  Ni  Ni36  1  0.49215770  0.00669179  0.18524169  1
  Ni  Ni37  1  0.00784230  0.00669179  0.31475831  1
  Ni  Ni38  1  0.18524169  0.49215770  0.00669179  1
  Ni  Ni39  1  0.31475831  0.49215770  0.49330821  1
  Cu  Cu40  1  0.50344350  0.24045014  0.91217594  1
  Cu  Cu41  1  0.00344350  0.74045014  0.08782406  1
  Cu  Cu42  1  0.41217594  0.00344350  0.75954986  1
  Cu  Cu43  1  0.25954986  0.58782406  0.50344350  1
  Cu  Cu44  1  0.91217594  0.50344350  0.24045014  1
  Cu  Cu45  1  0.24298964  0.10135335  0.46673599  1
  Cu  Cu46  1  0.39864665  0.46673599  0.25701036  1
  Cu  Cu47  1  0.96673599  0.75701036  0.60135335  1
  Cu  Cu48  1  0.58782406  0.99655650  0.24045014  1
  Cu  Cu49  1  0.03326401  0.24298964  0.39864665  1
  Cu  Cu50  1  0.08782406  0.00344350  0.74045014  1
  Cu  Cu51  1  0.39864665  0.03326401  0.24298964  1
  Cu  Cu52  1  0.75954986  0.41217594  0.00344350  1
  Cu  Cu53  1  0.89864665  0.96673599  0.74298964  1
  Cu  Cu54  1  0.03326401  0.25701036  0.10135335  1
  Cu  Cu55  1  0.91217594  0.99655650  0.25954986  1
  Cu  Cu56  1  0.89864665  0.53326401  0.75701036  1
  Cu  Cu57  1  0.24045014  0.91217594  0.50344350  1
  Cu  Cu58  1  0.08782406  0.49655650  0.75954986  1
  Cu  Cu59  1  0.10135335  0.03326401  0.25701036  1
  Cu  Cu60  1  0.53326401  0.75701036  0.89864665  1
  Cu  Cu61  1  0.24045014  0.58782406  0.99655650  1
  Cu  Cu62  1  0.24298964  0.39864665  0.03326401  1
  Cu  Cu63  1  0.75954986  0.08782406  0.49655650  1
  Cu  Cu64  1  0.00344350  0.75954986  0.41217594  1
  Cu  Cu65  1  0.25701036  0.39864665  0.46673599  1
  Cu  Cu66  1  0.41217594  0.49655650  0.74045014  1
  Cu  Cu67  1  0.99655650  0.24045014  0.58782406  1
  Cu  Cu68  1  0.58782406  0.50344350  0.25954986  1
  Cu  Cu69  1  0.53326401  0.74298964  0.60135335  1
  Cu  Cu70  1  0.75701036  0.60135335  0.96673599  1
  Cu  Cu71  1  0.60135335  0.96673599  0.75701036  1
  Cu  Cu72  1  0.25954986  0.91217594  0.99655650  1
  Cu  Cu73  1  0.74298964  0.89864665  0.96673599  1
  Cu  Cu74  1  0.74045014  0.08782406  0.00344350  1
  Cu  Cu75  1  0.50344350  0.25954986  0.58782406  1
  Cu  Cu76  1  0.75701036  0.89864665  0.53326401  1
  Cu  Cu77  1  0.74045014  0.41217594  0.49655650  1
  Cu  Cu78  1  0.99655650  0.25954986  0.91217594  1
  Cu  Cu79  1  0.49655650  0.75954986  0.08782406  1
  Cu  Cu80  1  0.10135335  0.46673599  0.24298964  1
  Cu  Cu81  1  0.25701036  0.10135335  0.03326401  1
  Cu  Cu82  1  0.46673599  0.25701036  0.39864665  1
  Cu  Cu83  1  0.60135335  0.53326401  0.74298964  1
  Cu  Cu84  1  0.49655650  0.74045014  0.41217594  1
  Cu  Cu85  1  0.96673599  0.74298964  0.89864665  1
  Cu  Cu86  1  0.74298964  0.60135335  0.53326401  1
  Cu  Cu87  1  0.46673599  0.24298964  0.10135335  1
