# generated using pymatgen
data_CuNi4C3
_symmetry_space_group_name_H-M   'P 1'
_cell_length_a   4.93334936
_cell_length_b   4.93334936
_cell_length_c   9.14937088
_cell_angle_alpha   74.65341806
_cell_angle_beta   74.65341806
_cell_angle_gamma   90.11592510
_symmetry_Int_Tables_number   1
_chemical_formula_structural   CuNi4C3
_chemical_formula_sum   'Cu2 Ni8 C6'
_cell_volume   206.45702199
_cell_formula_units_Z   2
loop_
 _symmetry_equiv_pos_site_id
 _symmetry_equiv_pos_as_xyz
  1  'x, y, z'
loop_
 _atom_site_type_symbol
 _atom_site_label
 _atom_site_symmetry_multiplicity
 _atom_site_fract_x
 _atom_site_fract_y
 _atom_site_fract_z
 _atom_site_occupancy
  C  C0  1  0.00049500  0.75046100  0.99939600  1
  C  C1  1  0.75046100  0.00049500  0.49939600  1
  C  C2  1  0.16739000  0.40097500  0.66353800  1
  C  C3  1  0.40097500  0.16739000  0.16353800  1
  C  C4  1  0.58280900  0.31223900  0.83449300  1
  C  C5  1  0.31223900  0.58280900  0.33449300  1
  Ni  Ni6  1  0.84014100  0.48599500  0.70301800  1
  Ni  Ni7  1  0.60232400  0.35406800  0.99498400  1
  Ni  Ni8  1  0.99916900  0.58301800  0.34102200  1
  Ni  Ni9  1  0.30691000  0.43611800  0.80132100  1
  Ni  Ni10  1  0.35406800  0.60232400  0.49498400  1
  Ni  Ni11  1  0.58301800  0.99916900  0.84102200  1
  Ni  Ni12  1  0.43611800  0.30691000  0.30132100  1
  Ni  Ni13  1  0.48599500  0.84014100  0.20301800  1
  Cu  Cu14  1  0.17364200  0.08695300  0.65179800  1
  Cu  Cu15  1  0.08695300  0.17364200  0.15179800  1
