# generated using pymatgen
data_Cu4NiC3
_symmetry_space_group_name_H-M   'P 1'
_cell_length_a   5.43535615
_cell_length_b   5.43535615
_cell_length_c   13.69117200
_cell_angle_alpha   90.00000000
_cell_angle_beta   90.00000000
_cell_angle_gamma   115.52632102
_symmetry_Int_Tables_number   1
_chemical_formula_structural   Cu4NiC3
_chemical_formula_sum   'Cu16 Ni4 C12'
_cell_volume   364.99731578
_cell_formula_units_Z   4
loop_
 _symmetry_equiv_pos_site_id
 _symmetry_equiv_pos_as_xyz
  1  'x, y, z'
loop_
 _atom_site_type_symbol
 _atom_site_label
 _atom_site_symmetry_multiplicity
 _atom_site_fract_x
 _atom_site_fract_y
 _atom_site_fract_z
 _atom_site_occupancy
  Ni  Ni0  1  0.72883400  0.27116600  0.34224800  1
  Ni  Ni1  1  0.27116600  0.72883400  0.84224800  1
  Ni  Ni2  1  0.77333200  0.22666800  0.65556500  1
  Ni  Ni3  1  0.22666800  0.77333200  0.15556500  1
  Cu  Cu4  1  0.91625500  0.08374500  0.17678900  1
  Cu  Cu5  1  0.08374500  0.91625500  0.67678900  1
  Cu  Cu6  1  0.54866300  0.45133700  0.15824400  1
  Cu  Cu7  1  0.45133700  0.54866300  0.65824400  1
  Cu  Cu8  1  0.21088900  0.43570900  0.49200100  1
  Cu  Cu9  1  0.43570900  0.21088900  0.99200100  1
  Cu  Cu10  1  0.05489400  0.30038500  0.00543200  1
  Cu  Cu11  1  0.30038500  0.05489400  0.50543200  1
  Cu  Cu12  1  0.94510600  0.69961500  0.50543200  1
  Cu  Cu13  1  0.69961500  0.94510600  0.00543200  1
  Cu  Cu14  1  0.78911100  0.56429100  0.99200100  1
  Cu  Cu15  1  0.56429100  0.78911100  0.49200100  1
  Cu  Cu16  1  0.41647000  0.58353000  0.32086300  1
  Cu  Cu17  1  0.58353000  0.41647000  0.82086300  1
  Cu  Cu18  1  0.04980500  0.95019500  0.34226800  1
  Cu  Cu19  1  0.95019500  0.04980500  0.84226800  1
  C  C20  1  0.74550700  0.76022600  0.24949000  1
  C  C21  1  0.76022600  0.74550700  0.74949000  1
  C  C22  1  0.06165400  0.93834600  0.98984100  1
  C  C23  1  0.93834600  0.06165400  0.48984100  1
  C  C24  1  0.24705200  0.75294800  0.39751600  1
  C  C25  1  0.75294800  0.24705200  0.89751600  1
  C  C26  1  0.23977400  0.25449300  0.24949000  1
  C  C27  1  0.25449300  0.23977400  0.74949000  1
  C  C28  1  0.56909700  0.43090300  0.50825400  1
  C  C29  1  0.43090300  0.56909700  0.00825400  1
  C  C30  1  0.74325500  0.25674500  0.10229900  1
  C  C31  1  0.25674500  0.74325500  0.60229900  1
