# generated using pymatgen
data_Cu2NiC7
_symmetry_space_group_name_H-M   'P 1'
_cell_length_a   6.59407700
_cell_length_b   10.72267943
_cell_length_c   13.18638240
_cell_angle_alpha   75.42581661
_cell_angle_beta   84.01472898
_cell_angle_gamma   75.43146561
_symmetry_Int_Tables_number   1
_chemical_formula_structural   Cu2NiC7
_chemical_formula_sum   'Cu16 Ni8 C56'
_cell_volume   872.50863377
_cell_formula_units_Z   8
loop_
 _symmetry_equiv_pos_site_id
 _symmetry_equiv_pos_as_xyz
  1  'x, y, z'
loop_
 _atom_site_type_symbol
 _atom_site_label
 _atom_site_symmetry_multiplicity
 _atom_site_fract_x
 _atom_site_fract_y
 _atom_site_fract_z
 _atom_site_occupancy
  C  C0  1  0.29148200  0.87544000  0.85473000  1
  C  C1  1  0.70851800  0.12456000  0.14527000  1
  C  C2  1  0.74883800  0.62320100  0.62856500  1
  C  C3  1  0.25221900  0.37422800  0.87518200  1
  C  C4  1  0.74548300  0.12611300  0.62663600  1
  C  C5  1  0.25451700  0.87388700  0.37336400  1
  C  C6  1  0.74778100  0.62577200  0.12481800  1
  C  C7  1  0.25116200  0.37679900  0.37143500  1
  Ni  Ni8  1  0.89795000  0.87422800  0.55223200  1
  Ni  Ni9  1  0.10309800  0.62477200  0.94936000  1
  Ni  Ni10  1  0.89800300  0.37577400  0.54997500  1
  Ni  Ni11  1  0.10097400  0.12532000  0.94872400  1
  Ni  Ni12  1  0.89902600  0.87468000  0.05127600  1
  Ni  Ni13  1  0.10199700  0.62422600  0.45002500  1
  Ni  Ni14  1  0.89690200  0.37522800  0.05064000  1
  Ni  Ni15  1  0.10205000  0.12577200  0.44776800  1
  Cu  Cu16  1  0.79327400  0.87940900  0.80824000  1
  Cu  Cu17  1  0.61931500  0.62673200  0.89738800  1
  Cu  Cu18  1  0.79669900  0.37976300  0.80633100  1
  Cu  Cu19  1  0.61558800  0.13067700  0.89482800  1
  Cu  Cu20  1  0.38383200  0.86897700  0.60212400  1
  Cu  Cu21  1  0.79572200  0.87739500  0.31041800  1
  Cu  Cu22  1  0.20704800  0.61769300  0.69282600  1
  Cu  Cu23  1  0.61333100  0.63052800  0.39880300  1
  Cu  Cu24  1  0.38666900  0.36947200  0.60119700  1
  Cu  Cu25  1  0.79295200  0.38230700  0.30717400  1
  Cu  Cu26  1  0.20427800  0.12260500  0.68958200  1
  Cu  Cu27  1  0.61616800  0.13102300  0.39787600  1
  Cu  Cu28  1  0.38441200  0.86932300  0.10517200  1
  Cu  Cu29  1  0.20330100  0.62023700  0.19366900  1
  Cu  Cu30  1  0.38068500  0.37326800  0.10261200  1
  Cu  Cu31  1  0.20672600  0.12059100  0.19176000  1
  C  C32  1  0.96426300  0.82165400  0.90147300  1
  C  C33  1  0.80349100  0.57405900  0.98420100  1
  C  C34  1  0.96923800  0.32461800  0.89957700  1
  C  C35  1  0.89039000  0.91218200  0.68917200  1
  C  C36  1  0.64698800  0.77140400  0.82287300  1
  C  C37  1  0.80214400  0.07169300  0.98074400  1
  C  C38  1  0.38318900  0.65239900  0.94807400  1
  C  C39  1  0.65108000  0.52395100  0.82054700  1
  C  C40  1  0.89249700  0.41216500  0.68704700  1
  C  C41  1  0.64901700  0.27332800  0.82090600  1
  C  C42  1  0.35029600  0.97800100  0.67454800  1
  C  C43  1  0.37711300  0.16412500  0.94264300  1
  C  C44  1  0.97036800  0.82297000  0.40240100  1
  C  C45  1  0.62384300  0.83590000  0.55681600  1
  C  C46  1  0.64076100  0.02207600  0.82258000  1
  C  C47  1  0.34961700  0.72749200  0.67784700  1
  C  C48  1  0.79823500  0.57436700  0.48608800  1
  C  C49  1  0.11531700  0.58423000  0.81253100  1
  C  C50  1  0.35591800  0.47618600  0.67482100  1
  C  C51  1  0.97057600  0.32514300  0.39818200  1
  C  C52  1  0.62516000  0.33756100  0.55357300  1
  C  C53  1  0.89494300  0.90257300  0.19208700  1
  C  C54  1  0.20131500  0.92580200  0.51381000  1
  C  C55  1  0.35760000  0.22553000  0.67339400  1
  C  C56  1  0.64240000  0.77447000  0.32660600  1
  C  C57  1  0.79868500  0.07419800  0.48619000  1
  C  C58  1  0.10505700  0.09742700  0.80791300  1
  C  C59  1  0.37484000  0.66243900  0.44642700  1
  C  C60  1  0.02942400  0.67485700  0.60181800  1
  C  C61  1  0.64408200  0.52381400  0.32517900  1
  C  C62  1  0.88468300  0.41577000  0.18746900  1
  C  C63  1  0.20176500  0.42563300  0.51391200  1
  C  C64  1  0.65038300  0.27250800  0.32215300  1
  C  C65  1  0.35923900  0.97792400  0.17742000  1
  C  C66  1  0.37615700  0.16410000  0.44318400  1
  C  C67  1  0.02963200  0.17703000  0.59759900  1
  C  C68  1  0.62288700  0.83587500  0.05735700  1
  C  C69  1  0.64970400  0.02199900  0.32545200  1
  C  C70  1  0.35098300  0.72667200  0.17909400  1
  C  C71  1  0.10750300  0.58783500  0.31295300  1
  C  C72  1  0.34892000  0.47604900  0.17945300  1
  C  C73  1  0.61681100  0.34760100  0.05192600  1
  C  C74  1  0.19785600  0.92830700  0.01925600  1
  C  C75  1  0.35301200  0.22859600  0.17712700  1
  C  C76  1  0.10961000  0.08781800  0.31082800  1
  C  C77  1  0.03076200  0.67538200  0.10042300  1
  C  C78  1  0.19650900  0.42594100  0.01579900  1
  C  C79  1  0.03573700  0.17834600  0.09852700  1
