# generated using pymatgen
data_Cu5(NiC2)3
_symmetry_space_group_name_H-M   'P 1'
_cell_length_a   6.42729025
_cell_length_b   6.42729025
_cell_length_c   6.42728962
_cell_angle_alpha   60.27661091
_cell_angle_beta   60.27661091
_cell_angle_gamma   60.27661276
_symmetry_Int_Tables_number   1
_chemical_formula_structural   Cu5(NiC2)3
_chemical_formula_sum   'Cu5 Ni3 C6'
_cell_volume   188.92050555
_cell_formula_units_Z   1
loop_
 _symmetry_equiv_pos_site_id
 _symmetry_equiv_pos_as_xyz
  1  'x, y, z'
loop_
 _atom_site_type_symbol
 _atom_site_label
 _atom_site_symmetry_multiplicity
 _atom_site_fract_x
 _atom_site_fract_y
 _atom_site_fract_z
 _atom_site_occupancy
  C  C0  1  0.24675500  0.24675500  0.24675500  1
  C  C1  1  0.01633600  0.01633600  0.01633600  1
  C  C2  1  0.62151300  0.62151300  0.11010100  1
  C  C3  1  0.11010100  0.62151300  0.62151300  1
  C  C4  1  0.63185800  0.63185800  0.63185800  1
  C  C5  1  0.62151300  0.11010100  0.62151300  1
  Ni  Ni6  1  0.86844600  0.86844600  0.40511000  1
  Ni  Ni7  1  0.40511000  0.86844600  0.86844600  1
  Ni  Ni8  1  0.86844600  0.40511000  0.86844600  1
  Cu  Cu9  1  0.37575500  0.37575500  0.37575500  1
  Cu  Cu10  1  0.38239800  0.84463900  0.38239800  1
  Cu  Cu11  1  0.38239800  0.38239800  0.84463900  1
  Cu  Cu12  1  0.84463900  0.38239800  0.38239800  1
  Cu  Cu13  1  0.87473100  0.87473100  0.87473100  1
