# generated using pymatgen
data_Cu4Ni4C33
_symmetry_space_group_name_H-M   'P 1'
_cell_length_a   8.88284200
_cell_length_b   9.91191600
_cell_length_c   23.88194100
_cell_angle_alpha   90.00000000
_cell_angle_beta   90.00000000
_cell_angle_gamma   90.00000000
_symmetry_Int_Tables_number   1
_chemical_formula_structural   Cu4Ni4C33
_chemical_formula_sum   'Cu16 Ni16 C132'
_cell_volume   2102.70898909
_cell_formula_units_Z   4
loop_
 _symmetry_equiv_pos_site_id
 _symmetry_equiv_pos_as_xyz
  1  'x, y, z'
loop_
 _atom_site_type_symbol
 _atom_site_label
 _atom_site_symmetry_multiplicity
 _atom_site_fract_x
 _atom_site_fract_y
 _atom_site_fract_z
 _atom_site_occupancy
  C  C0  1  0.25000000  0.25000000  0.52191800  1
  C  C1  1  0.75000000  0.75000000  0.97808200  1
  C  C2  1  0.75000000  0.75000000  0.47808200  1
  C  C3  1  0.25000000  0.25000000  0.02191800  1
  C  C4  1  0.21367900  0.88678100  0.30831400  1
  C  C5  1  0.28632100  0.61321900  0.30831400  1
  C  C6  1  0.71367900  0.11321900  0.19168600  1
  C  C7  1  0.78632100  0.38678100  0.19168600  1
  C  C8  1  0.78632100  0.11321900  0.69168600  1
  C  C9  1  0.71367900  0.38678100  0.69168600  1
  C  C10  1  0.28632100  0.88678100  0.80831400  1
  C  C11  1  0.21367900  0.61321900  0.80831400  1
  C  C12  1  0.11050600  0.83836100  0.36829300  1
  C  C13  1  0.38949400  0.66163900  0.36829300  1
  C  C14  1  0.61050600  0.16163900  0.13170700  1
  C  C15  1  0.88949400  0.33836100  0.13170700  1
  C  C16  1  0.88949400  0.16163900  0.63170700  1
  C  C17  1  0.61050600  0.33836100  0.63170700  1
  C  C18  1  0.38949400  0.83836100  0.86829300  1
  C  C19  1  0.11050600  0.66163900  0.86829300  1
  C  C20  1  0.39854900  0.15796800  0.37428200  1
  C  C21  1  0.10145100  0.34203200  0.37428200  1
  C  C22  1  0.89854900  0.84203200  0.12571800  1
  C  C23  1  0.60145100  0.65796800  0.12571800  1
  C  C24  1  0.60145100  0.84203200  0.62571800  1
  C  C25  1  0.89854900  0.65796800  0.62571800  1
  C  C26  1  0.10145100  0.15796800  0.87428200  1
  C  C27  1  0.39854900  0.34203200  0.87428200  1
  C  C28  1  0.36576100  0.08074600  0.31063500  1
  C  C29  1  0.13423900  0.41925400  0.31063500  1
  C  C30  1  0.86576100  0.91925400  0.18936500  1
  C  C31  1  0.63423900  0.58074600  0.18936500  1
  C  C32  1  0.63423900  0.91925400  0.68936500  1
  C  C33  1  0.86576100  0.58074600  0.68936500  1
  C  C34  1  0.13423900  0.08074600  0.81063500  1
  C  C35  1  0.36576100  0.41925400  0.81063500  1
  C  C36  1  0.29528700  0.64232600  0.57835700  1
  C  C37  1  0.20471300  0.85767400  0.57835700  1
  C  C38  1  0.79528700  0.35767400  0.92164300  1
  C  C39  1  0.70471300  0.14232600  0.92164300  1
  C  C40  1  0.70471300  0.35767400  0.42164300  1
  C  C41  1  0.79528700  0.14232600  0.42164300  1
  C  C42  1  0.20471300  0.64232600  0.07835700  1
  C  C43  1  0.29528700  0.85767400  0.07835700  1
  C  C44  1  0.24570900  0.59801500  0.56072700  1
  C  C45  1  0.25429100  0.90198500  0.56072700  1
  C  C46  1  0.74570900  0.40198500  0.93927300  1
  C  C47  1  0.75429100  0.09801500  0.93927300  1
  C  C48  1  0.75429100  0.40198500  0.43927300  1
  C  C49  1  0.74570900  0.09801500  0.43927300  1
  C  C50  1  0.25429100  0.59801500  0.06072700  1
  C  C51  1  0.24570900  0.90198500  0.06072700  1
  C  C52  1  0.12080900  0.36646900  0.69910000  1
  C  C53  1  0.37919100  0.13353100  0.69910000  1
  C  C54  1  0.62080900  0.63353100  0.80090000  1
  C  C55  1  0.87919100  0.86646900  0.80090000  1
  C  C56  1  0.87919100  0.63353100  0.30090000  1
  C  C57  1  0.62080900  0.86646900  0.30090000  1
  C  C58  1  0.37919100  0.36646900  0.19910000  1
  C  C59  1  0.12080900  0.13353100  0.19910000  1
  C  C60  1  0.25656700  0.49417100  0.68464000  1
  C  C61  1  0.24343300  0.00582900  0.68464000  1
  C  C62  1  0.75656700  0.50582900  0.81536000  1
  C  C63  1  0.74343300  0.99417100  0.81536000  1
  C  C64  1  0.74343300  0.50582900  0.31536000  1
  C  C65  1  0.75656700  0.99417100  0.31536000  1
  C  C66  1  0.24343300  0.49417100  0.18464000  1
  C  C67  1  0.25656700  0.00582900  0.18464000  1
  Ni  Ni68  1  0.15755800  0.40299100  0.61693800  1
  Ni  Ni69  1  0.34244200  0.09700900  0.61693800  1
  Ni  Ni70  1  0.65755800  0.59700900  0.88306200  1
  Ni  Ni71  1  0.84244200  0.90299100  0.88306200  1
  Ni  Ni72  1  0.84244200  0.59700900  0.38306200  1
  Ni  Ni73  1  0.65755800  0.90299100  0.38306200  1
  Ni  Ni74  1  0.34244200  0.40299100  0.11693800  1
  Ni  Ni75  1  0.15755800  0.09700900  0.11693800  1
  Ni  Ni76  1  0.24690300  0.00250000  0.37817200  1
  Ni  Ni77  1  0.25309700  0.49750000  0.37817200  1
  Ni  Ni78  1  0.74690300  0.99750000  0.12182800  1
  Ni  Ni79  1  0.75309700  0.50250000  0.12182800  1
  Ni  Ni80  1  0.75309700  0.99750000  0.62182800  1
  Ni  Ni81  1  0.74690300  0.50250000  0.62182800  1
  Ni  Ni82  1  0.25309700  0.00250000  0.87817200  1
  Ni  Ni83  1  0.24690300  0.49750000  0.87817200  1
  Cu  Cu84  1  0.04136800  0.31889900  0.57707500  1
  Cu  Cu85  1  0.45863200  0.18110100  0.57707500  1
  Cu  Cu86  1  0.54136800  0.68110100  0.92292500  1
  Cu  Cu87  1  0.95863200  0.81889900  0.92292500  1
  Cu  Cu88  1  0.95863200  0.68110100  0.42292500  1
  Cu  Cu89  1  0.54136800  0.81889900  0.42292500  1
  Cu  Cu90  1  0.45863200  0.31889900  0.07707500  1
  Cu  Cu91  1  0.04136800  0.18110100  0.07707500  1
  Cu  Cu92  1  0.10785200  0.09363800  0.46777500  1
  Cu  Cu93  1  0.39214800  0.40636200  0.46777500  1
  Cu  Cu94  1  0.60785200  0.90636200  0.03222500  1
  Cu  Cu95  1  0.89214800  0.59363800  0.03222500  1
  Cu  Cu96  1  0.89214800  0.90636200  0.53222500  1
  Cu  Cu97  1  0.60785200  0.59363800  0.53222500  1
  Cu  Cu98  1  0.39214800  0.09363800  0.96777500  1
  Cu  Cu99  1  0.10785200  0.40636200  0.96777500  1
  C  C100  1  0.17780200  0.90632300  0.34823600  1
  C  C101  1  0.32219800  0.59367700  0.34823600  1
  C  C102  1  0.67780200  0.09367700  0.15176400  1
  C  C103  1  0.82219800  0.40632300  0.15176400  1
  C  C104  1  0.82219800  0.09367700  0.65176400  1
  C  C105  1  0.67780200  0.40632300  0.65176400  1
  C  C106  1  0.32219800  0.90632300  0.84823600  1
  C  C107  1  0.17780200  0.59367700  0.84823600  1
  C  C108  1  0.33832000  0.08889100  0.35189800  1
  C  C109  1  0.16168000  0.41110900  0.35189800  1
  C  C110  1  0.83832000  0.91110900  0.14810200  1
  C  C111  1  0.66168000  0.58889100  0.14810200  1
  C  C112  1  0.66168000  0.91110900  0.64810200  1
  C  C113  1  0.83832000  0.58889100  0.64810200  1
  C  C114  1  0.16168000  0.08889100  0.85189800  1
  C  C115  1  0.33832000  0.41110900  0.85189800  1
  C  C116  1  0.26188100  0.48957600  0.43496700  1
  C  C117  1  0.23811900  0.01042400  0.43496700  1
  C  C118  1  0.76188100  0.51042400  0.06503300  1
  C  C119  1  0.73811900  0.98957600  0.06503300  1
  C  C120  1  0.73811900  0.51042400  0.56503300  1
  C  C121  1  0.76188100  0.98957600  0.56503300  1
  C  C122  1  0.23811900  0.48957600  0.93496700  1
  C  C123  1  0.26188100  0.01042400  0.93496700  1
  C  C124  1  0.18172100  0.42183200  0.66934900  1
  C  C125  1  0.31827900  0.07816800  0.66934900  1
  C  C126  1  0.68172100  0.57816800  0.83065100  1
  C  C127  1  0.81827900  0.92183200  0.83065100  1
  C  C128  1  0.81827900  0.57816800  0.33065100  1
  C  C129  1  0.68172100  0.92183200  0.33065100  1
  C  C130  1  0.31827900  0.42183200  0.16934900  1
  C  C131  1  0.18172100  0.07816800  0.16934900  1
  C  C132  1  0.06421600  0.68152800  0.21908600  1
  C  C133  1  0.43578400  0.81847200  0.21908600  1
  C  C134  1  0.56421600  0.31847200  0.28091400  1
  C  C135  1  0.93578400  0.18152800  0.28091400  1
  C  C136  1  0.93578400  0.31847200  0.78091400  1
  C  C137  1  0.56421600  0.18152800  0.78091400  1
  C  C138  1  0.43578400  0.68152800  0.71908600  1
  C  C139  1  0.06421600  0.81847200  0.71908600  1
  C  C140  1  0.15775300  0.59509600  0.23935100  1
  C  C141  1  0.34224700  0.90490400  0.23935100  1
  C  C142  1  0.65775300  0.40490400  0.26064900  1
  C  C143  1  0.84224700  0.09509600  0.26064900  1
  C  C144  1  0.84224700  0.40490400  0.76064900  1
  C  C145  1  0.65775300  0.09509600  0.76064900  1
  C  C146  1  0.34224700  0.59509600  0.73935100  1
  C  C147  1  0.15775300  0.90490400  0.73935100  1
  C  C148  1  0.06269300  0.70487500  0.16773700  1
  C  C149  1  0.43730700  0.79512500  0.16773700  1
  C  C150  1  0.56269300  0.29512500  0.33226300  1
  C  C151  1  0.93730700  0.20487500  0.33226300  1
  C  C152  1  0.93730700  0.29512500  0.83226300  1
  C  C153  1  0.56269300  0.20487500  0.83226300  1
  C  C154  1  0.43730700  0.70487500  0.66773700  1
  C  C155  1  0.06269300  0.79512500  0.66773700  1
  C  C156  1  0.97427900  0.74145900  0.25262100  1
  C  C157  1  0.52572100  0.75854100  0.25262100  1
  C  C158  1  0.47427900  0.25854100  0.24737900  1
  C  C159  1  0.02572100  0.24145900  0.24737900  1
  C  C160  1  0.02572100  0.25854100  0.74737900  1
  C  C161  1  0.47427900  0.24145900  0.74737900  1
  C  C162  1  0.52572100  0.74145900  0.75262100  1
  C  C163  1  0.97427900  0.75854100  0.75262100  1
