# generated using pymatgen
data_CuNi11C72
_symmetry_space_group_name_H-M   'P 1'
_cell_length_a   18.52210500
_cell_length_b   4.78797000
_cell_length_c   10.54268444
_cell_angle_alpha   89.97008226
_cell_angle_beta   90.00000000
_cell_angle_gamma   90.00000000
_symmetry_Int_Tables_number   1
_chemical_formula_structural   CuNi11C72
_chemical_formula_sum   'Cu1 Ni11 C72'
_cell_volume   934.95974088
_cell_formula_units_Z   1
loop_
 _symmetry_equiv_pos_site_id
 _symmetry_equiv_pos_as_xyz
  1  'x, y, z'
loop_
 _atom_site_type_symbol
 _atom_site_label
 _atom_site_symmetry_multiplicity
 _atom_site_fract_x
 _atom_site_fract_y
 _atom_site_fract_z
 _atom_site_occupancy
  C  C0  1  0.91666600  0.00001600  0.99999200  1
  C  C1  1  0.25004600  0.99997000  0.99999600  1
  C  C2  1  0.08333400  0.00001600  0.99999200  1
  C  C3  1  0.74995400  0.99997000  0.99999600  1
  C  C4  1  0.58307900  0.00008300  0.99947700  1
  C  C5  1  0.41692100  0.00008300  0.99947700  1
  C  C6  1  0.08331500  0.49993700  0.50000000  1
  C  C7  1  0.25012600  0.49988100  0.50010200  1
  C  C8  1  0.74987400  0.49988100  0.50010200  1
  C  C9  1  0.91668500  0.49993700  0.50000000  1
  C  C10  1  0.41705200  0.50018000  0.50028100  1
  C  C11  1  0.58294800  0.50018000  0.50028100  1
  Ni  Ni12  1  0.00000000  0.97236400  0.28127200  1
  Ni  Ni13  1  0.66650200  0.97201400  0.28137300  1
  Ni  Ni14  1  0.33349800  0.97201400  0.28137300  1
  Ni  Ni15  1  0.66628100  0.52813100  0.78134400  1
  Ni  Ni16  1  0.33371900  0.52813100  0.78134400  1
  Ni  Ni17  1  0.00000000  0.52803700  0.78130900  1
  Ni  Ni18  1  0.16671500  0.47212000  0.21874100  1
  Ni  Ni19  1  0.83328500  0.47212000  0.21874100  1
  Ni  Ni20  1  0.50000000  0.47275200  0.21867800  1
  Ni  Ni21  1  0.16679900  0.02798600  0.71876100  1
  Ni  Ni22  1  0.83320100  0.02798600  0.71876100  1
  Cu  Cu23  1  0.50000000  0.03088800  0.71863400  1
  C  C24  1  0.16669500  0.90955500  0.40807900  1
  C  C25  1  0.83330500  0.90955500  0.40807900  1
  C  C26  1  0.50000000  0.91069500  0.40895100  1
  C  C27  1  0.16668800  0.59042000  0.90794600  1
  C  C28  1  0.83331200  0.59042000  0.90794600  1
  C  C29  1  0.50000000  0.59146200  0.90607500  1
  C  C30  1  0.00000000  0.40958800  0.09197500  1
  C  C31  1  0.66663500  0.40957500  0.09198200  1
  C  C32  1  0.33336500  0.40957500  0.09198200  1
  C  C33  1  0.00000000  0.09009900  0.59196800  1
  C  C34  1  0.66608700  0.08888200  0.59236400  1
  C  C35  1  0.33391300  0.08888200  0.59236400  1
  C  C36  1  0.16666400  0.78758500  0.54493500  1
  C  C37  1  0.83333600  0.78758500  0.54493500  1
  C  C38  1  0.50000000  0.79072200  0.54626700  1
  C  C39  1  0.23358100  0.77679700  0.33876900  1
  C  C40  1  0.09982300  0.77683400  0.33869400  1
  C  C41  1  0.90017700  0.77683400  0.33869400  1
  C  C42  1  0.76641900  0.77679700  0.33876900  1
  C  C43  1  0.56678000  0.77682800  0.33950400  1
  C  C44  1  0.43322000  0.77682800  0.33950400  1
  C  C45  1  0.00000000  0.76925700  0.59583000  1
  C  C46  1  0.66677300  0.76808400  0.59585600  1
  C  C47  1  0.33322700  0.76808400  0.59585600  1
  C  C48  1  0.00000000  0.73057900  0.09606200  1
  C  C49  1  0.33333700  0.73051400  0.09603700  1
  C  C50  1  0.66666300  0.73051400  0.09603700  1
  C  C51  1  0.23358200  0.72328200  0.83873300  1
  C  C52  1  0.09982900  0.72350200  0.83871600  1
  C  C53  1  0.76641800  0.72328200  0.83873300  1
  C  C54  1  0.56679000  0.72654200  0.83732300  1
  C  C55  1  0.90017100  0.72350200  0.83871600  1
  C  C56  1  0.43321000  0.72654200  0.83732300  1
  C  C57  1  0.16662500  0.71235900  0.04492300  1
  C  C58  1  0.83337500  0.71235900  0.04492300  1
  C  C59  1  0.50000000  0.71091800  0.04364400  1
  C  C60  1  0.00000000  0.28766600  0.95520800  1
  C  C61  1  0.66661700  0.28783100  0.95511700  1
  C  C62  1  0.33338300  0.28783100  0.95511700  1
  C  C63  1  0.06689000  0.27664800  0.16130400  1
  C  C64  1  0.93311000  0.27664800  0.16130400  1
  C  C65  1  0.73353600  0.27657200  0.16126300  1
  C  C66  1  0.40021200  0.27663700  0.16136100  1
  C  C67  1  0.26646400  0.27657200  0.16126300  1
  C  C68  1  0.59978800  0.27663700  0.16136100  1
  C  C69  1  0.16665800  0.26953000  0.90399100  1
  C  C70  1  0.83334200  0.26953000  0.90399100  1
  C  C71  1  0.50000000  0.27005600  0.90227200  1
  C  C72  1  0.16668500  0.23056800  0.40401900  1
  C  C73  1  0.50000000  0.23154700  0.40379700  1
  C  C74  1  0.83331500  0.23056800  0.40401900  1
  C  C75  1  0.06689700  0.22306400  0.66108500  1
  C  C76  1  0.93310300  0.22306400  0.66108500  1
  C  C77  1  0.73274200  0.22329000  0.66167200  1
  C  C78  1  0.26725800  0.22329000  0.66167200  1
  C  C79  1  0.40140000  0.21781700  0.66209900  1
  C  C80  1  0.59860000  0.21781700  0.66209900  1
  C  C81  1  0.00000000  0.21215400  0.45493700  1
  C  C82  1  0.66617600  0.21257800  0.45572300  1
  C  C83  1  0.33382400  0.21257800  0.45572300  1
