# generated using pymatgen
data_Cu2Ni2C15
_symmetry_space_group_name_H-M   'P 1'
_cell_length_a   6.20824700
_cell_length_b   11.41969800
_cell_length_c   13.27055400
_cell_angle_alpha   90.00000000
_cell_angle_beta   90.00000000
_cell_angle_gamma   90.00000000
_symmetry_Int_Tables_number   1
_chemical_formula_structural   Cu2Ni2C15
_chemical_formula_sum   'Cu8 Ni8 C60'
_cell_volume   940.83325518
_cell_formula_units_Z   4
loop_
 _symmetry_equiv_pos_site_id
 _symmetry_equiv_pos_as_xyz
  1  'x, y, z'
loop_
 _atom_site_type_symbol
 _atom_site_label
 _atom_site_symmetry_multiplicity
 _atom_site_fract_x
 _atom_site_fract_y
 _atom_site_fract_z
 _atom_site_occupancy
  C  C0  1  0.01695700  0.16600200  0.12473700  1
  C  C1  1  0.01695700  0.16600200  0.37526300  1
  C  C2  1  0.01695700  0.33399800  0.62473700  1
  C  C3  1  0.01695700  0.33399800  0.87526300  1
  C  C4  1  0.98304300  0.66600200  0.12473700  1
  C  C5  1  0.98304300  0.66600200  0.37526300  1
  C  C6  1  0.98304300  0.83399800  0.87526300  1
  C  C7  1  0.98304300  0.83399800  0.62473700  1
  C  C8  1  0.20260700  0.41862300  0.25000000  1
  C  C9  1  0.20260700  0.08137700  0.75000000  1
  C  C10  1  0.47771200  0.66952900  0.25000000  1
  C  C11  1  0.47771200  0.83047100  0.75000000  1
  C  C12  1  0.52228800  0.16952900  0.25000000  1
  C  C13  1  0.52228800  0.33047100  0.75000000  1
  C  C14  1  0.79739300  0.58137700  0.75000000  1
  C  C15  1  0.79739300  0.91862300  0.25000000  1
  Ni  Ni16  1  0.30592800  0.30782000  0.03070200  1
  Ni  Ni17  1  0.30592800  0.30782000  0.46929800  1
  Ni  Ni18  1  0.30592800  0.19218000  0.53070200  1
  Ni  Ni19  1  0.30592800  0.19218000  0.96929800  1
  Ni  Ni20  1  0.69407200  0.69218000  0.53070200  1
  Ni  Ni21  1  0.69407200  0.80782000  0.03070200  1
  Ni  Ni22  1  0.69407200  0.80782000  0.46929800  1
  Ni  Ni23  1  0.69407200  0.69218000  0.96929800  1
  Cu  Cu24  1  0.26908100  0.91014200  0.07759500  1
  Cu  Cu25  1  0.26908100  0.58985800  0.57759500  1
  Cu  Cu26  1  0.26908100  0.58985800  0.92240500  1
  Cu  Cu27  1  0.26908100  0.91014200  0.42240500  1
  Cu  Cu28  1  0.73091900  0.41014200  0.42240500  1
  Cu  Cu29  1  0.73091900  0.41014200  0.07759500  1
  Cu  Cu30  1  0.73091900  0.08985800  0.57759500  1
  Cu  Cu31  1  0.73091900  0.08985800  0.92240500  1
  C  C32  1  0.11216400  0.83574100  0.13494700  1
  C  C33  1  0.11216400  0.83574100  0.36505300  1
  C  C34  1  0.11216400  0.66425900  0.86505300  1
  C  C35  1  0.11216400  0.66425900  0.63494700  1
  C  C36  1  0.16732400  0.60167600  0.25000000  1
  C  C37  1  0.16732400  0.89832400  0.75000000  1
  C  C38  1  0.20383700  0.25000000  0.00000000  1
  C  C39  1  0.20383700  0.25000000  0.50000000  1
  C  C40  1  0.21137900  0.23300700  0.25000000  1
  C  C41  1  0.21137900  0.26699300  0.75000000  1
  C  C42  1  0.22214100  0.59592700  0.03234500  1
  C  C43  1  0.22214100  0.59592700  0.46765500  1
  C  C44  1  0.22214100  0.90407300  0.96765500  1
  C  C45  1  0.22214100  0.90407300  0.53234500  1
  C  C46  1  0.24687100  0.03315000  0.11475000  1
  C  C47  1  0.24687100  0.03315000  0.38525000  1
  C  C48  1  0.24687100  0.46685000  0.61475000  1
  C  C49  1  0.24687100  0.46685000  0.88525000  1
  C  C50  1  0.49088300  0.86928000  0.09860400  1
  C  C51  1  0.49088300  0.86928000  0.40139600  1
  C  C52  1  0.49088300  0.63072000  0.59860400  1
  C  C53  1  0.49088300  0.63072000  0.90139600  1
  C  C54  1  0.50911700  0.13072000  0.59860400  1
  C  C55  1  0.50911700  0.13072000  0.90139600  1
  C  C56  1  0.50911700  0.36928000  0.09860400  1
  C  C57  1  0.50911700  0.36928000  0.40139600  1
  C  C58  1  0.75312900  0.53315000  0.11475000  1
  C  C59  1  0.75312900  0.53315000  0.38525000  1
  C  C60  1  0.75312900  0.96685000  0.61475000  1
  C  C61  1  0.75312900  0.96685000  0.88525000  1
  C  C62  1  0.77785900  0.09592700  0.03234500  1
  C  C63  1  0.77785900  0.09592700  0.46765500  1
  C  C64  1  0.77785900  0.40407300  0.53234500  1
  C  C65  1  0.77785900  0.40407300  0.96765500  1
  C  C66  1  0.78862100  0.73300700  0.25000000  1
  C  C67  1  0.78862100  0.76699300  0.75000000  1
  C  C68  1  0.79616300  0.75000000  0.50000000  1
  C  C69  1  0.79616300  0.75000000  0.00000000  1
  C  C70  1  0.83267600  0.10167600  0.25000000  1
  C  C71  1  0.83267600  0.39832400  0.75000000  1
  C  C72  1  0.88783600  0.33574100  0.13494700  1
  C  C73  1  0.88783600  0.33574100  0.36505300  1
  C  C74  1  0.88783600  0.16425900  0.63494700  1
  C  C75  1  0.88783600  0.16425900  0.86505300  1
