# generated using pymatgen
data_Cu3Ni27C19
_symmetry_space_group_name_H-M   'P 1'
_cell_length_a   13.08401219
_cell_length_b   13.08401219
_cell_length_c   10.46398400
_cell_angle_alpha   90.00000000
_cell_angle_beta   90.00000000
_cell_angle_gamma   120.00000098
_symmetry_Int_Tables_number   1
_chemical_formula_structural   Cu3Ni27C19
_chemical_formula_sum   'Cu6 Ni54 C38'
_cell_volume   1551.34923104
_cell_formula_units_Z   2
loop_
 _symmetry_equiv_pos_site_id
 _symmetry_equiv_pos_as_xyz
  1  'x, y, z'
loop_
 _atom_site_type_symbol
 _atom_site_label
 _atom_site_symmetry_multiplicity
 _atom_site_fract_x
 _atom_site_fract_y
 _atom_site_fract_z
 _atom_site_occupancy
  C  C0  1  0.23705200  0.93753800  0.24597100  1
  C  C1  1  0.22144800  0.93703900  0.58371500  1
  C  C2  1  0.24088400  0.93838300  0.91710000  1
  C  C3  1  0.13428800  0.61175600  0.24870100  1
  C  C4  1  0.13376500  0.60619300  0.58292600  1
  C  C5  1  0.13302300  0.61390500  0.91663900  1
  C  C6  1  0.06246200  0.29951300  0.24597100  1
  C  C7  1  0.06296100  0.28440900  0.58371500  1
  C  C8  1  0.06161700  0.30250100  0.91710000  1
  C  C9  1  0.00000000  0.00000000  0.34801400  1
  C  C10  1  0.00000000  0.00000000  0.84801400  1
  C  C11  1  0.48088200  0.86697700  0.91663900  1
  C  C12  1  0.47242900  0.86623500  0.58292600  1
  C  C13  1  0.47746800  0.86571200  0.24870100  1
  C  C14  1  0.39380700  0.52757100  0.58292600  1
  C  C15  1  0.38609500  0.51911800  0.91663900  1
  C  C16  1  0.38824400  0.52253200  0.24870100  1
  C  C17  1  0.30250100  0.24088400  0.41710000  1
  C  C18  1  0.28440900  0.22144800  0.08371500  1
  C  C19  1  0.29951300  0.23705200  0.74597100  1
  C  C20  1  0.69749900  0.75911600  0.91710000  1
  C  C21  1  0.70048700  0.76294800  0.24597100  1
  C  C22  1  0.71559100  0.77855200  0.58371500  1
  C  C23  1  0.61175600  0.47746800  0.74870100  1
  C  C24  1  0.61390500  0.48088200  0.41663900  1
  C  C25  1  0.60619300  0.47242900  0.08292600  1
  C  C26  1  0.51911800  0.13302300  0.41663900  1
  C  C27  1  0.52757100  0.13376500  0.08292600  1
  C  C28  1  0.52253200  0.13428800  0.74870100  1
  C  C29  1  0.93753800  0.70048700  0.74597100  1
  C  C30  1  0.93703900  0.71559100  0.08371500  1
  C  C31  1  0.93838300  0.69749900  0.41710000  1
  C  C32  1  0.86571200  0.38824400  0.74870100  1
  C  C33  1  0.86697700  0.38609500  0.41663900  1
  C  C34  1  0.86623500  0.39380700  0.08292600  1
  C  C35  1  0.76294800  0.06246200  0.74597100  1
  C  C36  1  0.75911600  0.06161700  0.41710000  1
  C  C37  1  0.77855200  0.06296100  0.08371500  1
  Ni  Ni38  1  0.01422900  0.83589700  0.25406700  1
  Ni  Ni39  1  0.01343700  0.82096300  0.57910100  1
  Ni  Ni40  1  0.01573900  0.82941800  0.91284000  1
  Ni  Ni41  1  0.12273900  0.72325800  0.74761400  1
  Ni  Ni42  1  0.12475700  0.72849500  0.08434700  1
  Ni  Ni43  1  0.12352900  0.72289400  0.41268600  1
  Ni  Ni44  1  0.05630600  0.45522200  0.07964900  1
  Ni  Ni45  1  0.05732500  0.45887500  0.74810900  1
  Ni  Ni46  1  0.05819700  0.45653500  0.41612600  1
  Ni  Ni47  1  0.39833800  0.94180300  0.41612600  1
  Ni  Ni48  1  0.39891600  0.94369400  0.07964900  1
  Ni  Ni49  1  0.40154900  0.94267500  0.74810900  1
  Ni  Ni50  1  0.27710600  0.40063500  0.41268600  1
  Ni  Ni51  1  0.27150500  0.39626200  0.08434700  1
  Ni  Ni52  1  0.27674200  0.39948100  0.74761400  1
  Ni  Ni53  1  0.17903700  0.19247300  0.57910100  1
  Ni  Ni54  1  0.16410300  0.17833200  0.25406700  1
  Ni  Ni55  1  0.17058200  0.18632100  0.91284000  1
  Ni  Ni56  1  0.60051900  0.87726100  0.74761400  1
  Ni  Ni57  1  0.60373800  0.87524300  0.08434700  1
  Ni  Ni58  1  0.59936500  0.87647100  0.41268600  1
  Ni  Ni59  1  0.17833200  0.01422900  0.75406700  1
  Ni  Ni60  1  0.19247300  0.01343700  0.07910100  1
  Ni  Ni61  1  0.18632100  0.01573900  0.41284000  1
  Ni  Ni62  1  0.54112500  0.59845100  0.74810900  1
  Ni  Ni63  1  0.54346500  0.60166200  0.41612600  1
  Ni  Ni64  1  0.54477800  0.60108400  0.07964900  1
  Ni  Ni65  1  0.45522200  0.39891600  0.57964900  1
  Ni  Ni66  1  0.45653500  0.39833800  0.91612600  1
  Ni  Ni67  1  0.45887500  0.40154900  0.24810900  1
  Ni  Ni68  1  0.82166800  0.98577100  0.25406700  1
  Ni  Ni69  1  0.80752700  0.98656300  0.57910100  1
  Ni  Ni70  1  0.81367900  0.98426100  0.91284000  1
  Ni  Ni71  1  0.39626200  0.12475700  0.58434700  1
  Ni  Ni72  1  0.39948100  0.12273900  0.24761400  1
  Ni  Ni73  1  0.40063500  0.12352900  0.91268600  1
  Ni  Ni74  1  0.83589700  0.82166800  0.75406700  1
  Ni  Ni75  1  0.82096300  0.80752700  0.07910100  1
  Ni  Ni76  1  0.82941800  0.81367900  0.41284000  1
  Ni  Ni77  1  0.72325800  0.60051900  0.24761400  1
  Ni  Ni78  1  0.72289400  0.59936500  0.91268600  1
  Ni  Ni79  1  0.72849500  0.60373800  0.58434700  1
  Ni  Ni80  1  0.60166200  0.05819700  0.91612600  1
  Ni  Ni81  1  0.59845100  0.05732500  0.24810900  1
  Ni  Ni82  1  0.60108400  0.05630600  0.57964900  1
  Ni  Ni83  1  0.94180300  0.54346500  0.91612600  1
  Ni  Ni84  1  0.94369400  0.54477800  0.57964900  1
  Ni  Ni85  1  0.94267500  0.54112500  0.24810900  1
  Ni  Ni86  1  0.87647100  0.27710600  0.91268600  1
  Ni  Ni87  1  0.87726100  0.27674200  0.24761400  1
  Ni  Ni88  1  0.87524300  0.27150500  0.58434700  1
  Ni  Ni89  1  0.98577100  0.16410300  0.75406700  1
  Ni  Ni90  1  0.98656300  0.17903700  0.07910100  1
  Ni  Ni91  1  0.98426100  0.17058200  0.41284000  1
  Cu  Cu92  1  0.33333300  0.66666700  0.41308300  1
  Cu  Cu93  1  0.33333300  0.66666700  0.07944000  1
  Cu  Cu94  1  0.33333300  0.66666700  0.74809200  1
  Cu  Cu95  1  0.66666700  0.33333300  0.24809200  1
  Cu  Cu96  1  0.66666700  0.33333300  0.91308300  1
  Cu  Cu97  1  0.66666700  0.33333300  0.57944000  1
