# generated using pymatgen
data_Cu2(Ni4C5)3
_symmetry_space_group_name_H-M   'P 1'
_cell_length_a   12.55051000
_cell_length_b   6.28916900
_cell_length_c   9.03744163
_cell_angle_alpha   72.67358374
_cell_angle_beta   90.00000000
_cell_angle_gamma   90.00000000
_symmetry_Int_Tables_number   1
_chemical_formula_structural   Cu2(Ni4C5)3
_chemical_formula_sum   'Cu4 Ni24 C30'
_cell_volume   680.97678694
_cell_formula_units_Z   2
loop_
 _symmetry_equiv_pos_site_id
 _symmetry_equiv_pos_as_xyz
  1  'x, y, z'
loop_
 _atom_site_type_symbol
 _atom_site_label
 _atom_site_symmetry_multiplicity
 _atom_site_fract_x
 _atom_site_fract_y
 _atom_site_fract_z
 _atom_site_occupancy
  C  C0  1  0.00000000  0.00000000  0.00000000  1
  C  C1  1  0.50000000  0.00000000  0.50000000  1
  Ni  Ni2  1  0.06077000  0.33461300  0.10184500  1
  Ni  Ni3  1  0.86018800  0.67669400  0.03560000  1
  Ni  Ni4  1  0.40534000  0.06321600  0.22122300  1
  Ni  Ni5  1  0.63367200  0.08645200  0.25938800  1
  Ni  Ni6  1  0.31500200  0.00357400  0.35448400  1
  Ni  Ni7  1  0.09921800  0.67506200  0.21148100  1
  Ni  Ni8  1  0.59921800  0.32493800  0.28851900  1
  Ni  Ni9  1  0.81500200  0.99642600  0.14551600  1
  Ni  Ni10  1  0.13367200  0.91354800  0.24061200  1
  Ni  Ni11  1  0.90534000  0.93678400  0.27877700  1
  Ni  Ni12  1  0.36018800  0.32330600  0.46440000  1
  Ni  Ni13  1  0.56077000  0.66538700  0.39815500  1
  Ni  Ni14  1  0.43923000  0.33461300  0.60184500  1
  Ni  Ni15  1  0.63981200  0.67669400  0.53560000  1
  Ni  Ni16  1  0.09466000  0.06321600  0.72122300  1
  Ni  Ni17  1  0.86632800  0.08645200  0.75938800  1
  Ni  Ni18  1  0.18499800  0.00357400  0.85448400  1
  Ni  Ni19  1  0.40078200  0.67506200  0.71148100  1
  Ni  Ni20  1  0.90078200  0.32493800  0.78851900  1
  Ni  Ni21  1  0.68499800  0.99642600  0.64551600  1
  Ni  Ni22  1  0.36632800  0.91354800  0.74061200  1
  Ni  Ni23  1  0.59466000  0.93678400  0.77877700  1
  Ni  Ni24  1  0.13981200  0.32330600  0.96440000  1
  Ni  Ni25  1  0.93923000  0.66538700  0.89815500  1
  Cu  Cu26  1  0.64664700  0.74225300  0.10617900  1
  Cu  Cu27  1  0.14664700  0.25774700  0.39382100  1
  Cu  Cu28  1  0.85335300  0.74225300  0.60617900  1
  Cu  Cu29  1  0.35335300  0.25774700  0.89382100  1
  C  C30  1  0.06425100  0.29177800  0.00338300  1
  C  C31  1  0.41987500  0.19278900  0.03541500  1
  C  C32  1  0.89280300  0.01216400  0.16524700  1
  C  C33  1  0.73806800  0.60926800  0.07902700  1
  C  C34  1  0.68570900  0.94421100  0.14544600  1
  C  C35  1  0.10663500  0.84032400  0.16354700  1
  C  C36  1  0.08173500  0.39981000  0.26264700  1
  C  C37  1  0.58173500  0.60019000  0.23735300  1
  C  C38  1  0.60663500  0.15967600  0.33645300  1
  C  C39  1  0.18570900  0.05578900  0.35455400  1
  C  C40  1  0.23806800  0.39073200  0.42097300  1
  C  C41  1  0.39280300  0.98783600  0.33475300  1
  C  C42  1  0.43574900  0.29177800  0.50338300  1
  C  C43  1  0.08012500  0.19278900  0.53541500  1
  C  C44  1  0.91987500  0.80721100  0.46458500  1
  C  C45  1  0.56425100  0.70822200  0.49661700  1
  C  C46  1  0.60719700  0.01216400  0.66524700  1
  C  C47  1  0.76193200  0.60926800  0.57902700  1
  C  C48  1  0.81429100  0.94421100  0.64544600  1
  C  C49  1  0.39336500  0.84032400  0.66354700  1
  C  C50  1  0.41826500  0.39981000  0.76264700  1
  C  C51  1  0.91826500  0.60019000  0.73735300  1
  C  C52  1  0.89336500  0.15967600  0.83645300  1
  C  C53  1  0.31429100  0.05578900  0.85455400  1
  C  C54  1  0.26193200  0.39073200  0.92097300  1
  C  C55  1  0.10719700  0.98783600  0.83475300  1
  C  C56  1  0.58012500  0.80721100  0.96458500  1
  C  C57  1  0.93574900  0.70822200  0.99661700  1
