# generated using pymatgen
data_Cu(Ni2C)2
_symmetry_space_group_name_H-M   'P 1'
_cell_length_a   5.15174100
_cell_length_b   5.16430152
_cell_length_c   7.29537955
_cell_angle_alpha   107.21214898
_cell_angle_beta   109.22435182
_cell_angle_gamma   96.40638398
_symmetry_Int_Tables_number   1
_chemical_formula_structural   Cu(Ni2C)2
_chemical_formula_sum   'Cu2 Ni8 C4'
_cell_volume   170.29811778
_cell_formula_units_Z   2
loop_
 _symmetry_equiv_pos_site_id
 _symmetry_equiv_pos_as_xyz
  1  'x, y, z'
loop_
 _atom_site_type_symbol
 _atom_site_label
 _atom_site_symmetry_multiplicity
 _atom_site_fract_x
 _atom_site_fract_y
 _atom_site_fract_z
 _atom_site_occupancy
  C  C0  1  0.00000000  0.00000000  0.00000000  1
  C  C1  1  0.00000000  0.00000000  0.50000000  1
  C  C2  1  0.32784900  0.64591300  0.76429100  1
  C  C3  1  0.67215100  0.35408700  0.23570900  1
  Ni  Ni4  1  0.63510600  0.76544700  0.91921600  1
  Ni  Ni5  1  0.25817800  0.79152700  0.60178700  1
  Ni  Ni6  1  0.29493700  0.33473100  0.64989500  1
  Ni  Ni7  1  0.86849800  0.31636500  0.11187200  1
  Ni  Ni8  1  0.13150200  0.68363500  0.88812800  1
  Ni  Ni9  1  0.70506300  0.66526900  0.35010500  1
  Ni  Ni10  1  0.74182200  0.20847300  0.39821300  1
  Ni  Ni11  1  0.36489400  0.23455300  0.08078400  1
  Cu  Cu12  1  0.11698500  0.94238900  0.26478000  1
  Cu  Cu13  1  0.88301500  0.05761100  0.73522000  1
