# generated using pymatgen
data_Cu7(NiC30)3
_symmetry_space_group_name_H-M   'P 1'
_cell_length_a   9.78366400
_cell_length_b   11.29041264
_cell_length_c   12.71880066
_cell_angle_alpha   102.82909439
_cell_angle_beta   97.76548010
_cell_angle_gamma   106.76369044
_symmetry_Int_Tables_number   1
_chemical_formula_structural   Cu7(NiC30)3
_chemical_formula_sum   'Cu7 Ni3 C90'
_cell_volume   1281.45833474
_cell_formula_units_Z   1
loop_
 _symmetry_equiv_pos_site_id
 _symmetry_equiv_pos_as_xyz
  1  'x, y, z'
loop_
 _atom_site_type_symbol
 _atom_site_label
 _atom_site_symmetry_multiplicity
 _atom_site_fract_x
 _atom_site_fract_y
 _atom_site_fract_z
 _atom_site_occupancy
  C  C0  1  0.94800300  0.27149500  0.15120700  1
  C  C1  1  0.55338700  0.47730300  0.35045600  1
  C  C2  1  0.14849600  0.67430100  0.54777000  1
  C  C3  1  0.75147800  0.87407200  0.75115000  1
  C  C4  1  0.34940100  0.07387600  0.94972200  1
  C  C5  1  0.65241700  0.42947700  0.05101100  1
  C  C6  1  0.24664500  0.62568400  0.25144100  1
  C  C7  1  0.85329700  0.82705300  0.44778800  1
  C  C8  1  0.44922800  0.02593400  0.64926800  1
  C  C9  1  0.04934400  0.22373100  0.85026600  1
  C  C10  1  0.94747100  0.77818600  0.15041900  1
  C  C11  1  0.55509800  0.97596100  0.34996700  1
  C  C12  1  0.14420700  0.17200100  0.54615300  1
  C  C13  1  0.74768100  0.37583300  0.74986300  1
  C  C14  1  0.35562000  0.57524200  0.95005100  1
  C  C15  1  0.65697200  0.92350400  0.05255200  1
  C  C16  1  0.24224300  0.12217500  0.24924500  1
  C  C17  1  0.85017600  0.32196000  0.44842000  1
  C  C18  1  0.45297300  0.52648000  0.65282500  1
  C  C19  1  0.04661400  0.72602900  0.85078700  1
  Ni  Ni20  1  0.60265100  0.20197200  0.20075600  1
  Ni  Ni21  1  0.80051000  0.59955100  0.59967200  1
  Ni  Ni22  1  0.99876300  0.49986600  0.00056100  1
  Cu  Cu23  1  0.99980100  0.99971000  0.00062900  1
  Cu  Cu24  1  0.20001800  0.40077900  0.39963200  1
  Cu  Cu25  1  0.39882000  0.79916200  0.80022500  1
  Cu  Cu26  1  0.60000300  0.69910200  0.19946700  1
  Cu  Cu27  1  0.19972300  0.89927700  0.39901300  1
  Cu  Cu28  1  0.79991300  0.10039600  0.59943800  1
  Cu  Cu29  1  0.40120700  0.30120800  0.80115800  1
  C  C30  1  0.29996600  0.34958600  0.09995600  1
  C  C31  1  0.90112000  0.55049700  0.30050600  1
  C  C32  1  0.49973000  0.75082900  0.50010700  1
  C  C33  1  0.10214500  0.95144000  0.70056500  1
  C  C34  1  0.69841200  0.14871800  0.89829300  1
  C  C35  1  0.30113600  0.85029200  0.09999400  1
  C  C36  1  0.90046500  0.04944300  0.30069600  1
  C  C37  1  0.49742200  0.24907500  0.50005500  1
  C  C38  1  0.10046700  0.44906400  0.69987100  1
  C  C39  1  0.69940100  0.65084700  0.89974500  1
  C  C40  1  0.64888900  0.17394900  0.04560000  1
  C  C41  1  0.25093800  0.37376600  0.24436000  1
  C  C42  1  0.84958100  0.57501000  0.45263600  1
  C  C43  1  0.45067200  0.77227200  0.64516700  1
  C  C44  1  0.05472100  0.97641100  0.84598400  1
  C  C45  1  0.42282600  0.24948900  0.14114700  1
  C  C46  1  0.01996000  0.45088700  0.33952200  1
  C  C47  1  0.62544200  0.65103900  0.54281700  1
  C  C48  1  0.22256400  0.85174500  0.74089400  1
  C  C49  1  0.82329600  0.05606500  0.94059900  1
  C  C50  1  0.13454000  0.19253200  0.04406100  1
  C  C51  1  0.72274300  0.38377300  0.24101500  1
  C  C52  1  0.33422200  0.59134700  0.44461200  1
  C  C53  1  0.93263000  0.79033100  0.64459200  1
  C  C54  1  0.53333000  0.99379400  0.84338000  1
  C  C55  1  0.95085900  0.52467400  0.14744500  1
  C  C56  1  0.54745000  0.72385500  0.35496400  1
  C  C57  1  0.74846800  0.12632900  0.75430100  1
  C  C58  1  0.15089000  0.92788000  0.55674300  1
  C  C59  1  0.34635100  0.32433500  0.95507300  1
  C  C60  1  0.07339400  0.70975000  0.35828600  1
  C  C61  1  0.66667300  0.90508600  0.55632000  1
  C  C62  1  0.46405600  0.50638100  0.15509400  1
  C  C63  1  0.26838600  0.10876200  0.75623400  1
  C  C64  1  0.86954500  0.31092800  0.95562100  1
  C  C65  1  0.77502000  0.64295700  0.25928500  1
  C  C66  1  0.17493500  0.44855400  0.05683100  1
  C  C67  1  0.97651600  0.04631700  0.66026100  1
  C  C68  1  0.37996400  0.84960100  0.46050400  1
  C  C69  1  0.57936300  0.24841600  0.86011300  1
  C  C70  1  0.65016100  0.67313400  0.04866200  1
  C  C71  1  0.25442800  0.87542700  0.24451000  1
  C  C72  1  0.85076100  0.07664500  0.45082200  1
  C  C73  1  0.44997800  0.27247500  0.64419100  1
  C  C74  1  0.05056300  0.47514100  0.84843200  1
  C  C75  1  0.42241000  0.75373200  0.14098000  1
  C  C76  1  0.62321000  0.15455300  0.54185100  1
  C  C77  1  0.21891400  0.35095300  0.74076400  1
  C  C78  1  0.02549400  0.94895400  0.34198400  1
  C  C79  1  0.82715400  0.55027600  0.93916400  1
  C  C80  1  0.13234800  0.68945400  0.04292600  1
  C  C81  1  0.73357400  0.89155000  0.24645600  1
  C  C82  1  0.33367700  0.09297700  0.44420100  1
  C  C83  1  0.93270800  0.29566700  0.64679600  1
  C  C84  1  0.53056000  0.48610900  0.84285300  1
  C  C85  1  0.95151300  0.02856700  0.15162300  1
  C  C86  1  0.54626800  0.22394500  0.35245700  1
  C  C87  1  0.14756300  0.42683500  0.55540100  1
  C  C88  1  0.75057800  0.62343800  0.74703200  1
  C  C89  1  0.35091200  0.82678400  0.95501100  1
  C  C90  1  0.46940600  0.01170500  0.15547500  1
  C  C91  1  0.06400600  0.21147400  0.35551500  1
  C  C92  1  0.66796100  0.40957500  0.55525000  1
  C  C93  1  0.26393400  0.60670100  0.75661000  1
  C  C94  1  0.87075400  0.81232400  0.95496700  1
  C  C95  1  0.17996500  0.94651100  0.05830500  1
  C  C96  1  0.76844900  0.15091500  0.25676900  1
  C  C97  1  0.37941200  0.34879000  0.45967100  1
  C  C98  1  0.97453200  0.54930600  0.65939700  1
  C  C99  1  0.57816000  0.74873700  0.85776800  1
