# generated using pymatgen
data_Cu2NiC19
_symmetry_space_group_name_H-M   'P 1'
_cell_length_a   7.83764000
_cell_length_b   10.79628000
_cell_length_c   14.42631390
_cell_angle_alpha   78.67641344
_cell_angle_beta   90.00000000
_cell_angle_gamma   90.00000000
_symmetry_Int_Tables_number   1
_chemical_formula_structural   Cu2NiC19
_chemical_formula_sum   'Cu8 Ni4 C76'
_cell_volume   1196.95396283
_cell_formula_units_Z   4
loop_
 _symmetry_equiv_pos_site_id
 _symmetry_equiv_pos_as_xyz
  1  'x, y, z'
loop_
 _atom_site_type_symbol
 _atom_site_label
 _atom_site_symmetry_multiplicity
 _atom_site_fract_x
 _atom_site_fract_y
 _atom_site_fract_z
 _atom_site_occupancy
  C  C0  1  0.25168700  0.98317800  0.59181600  1
  C  C1  1  0.24831300  0.98317800  0.09181600  1
  C  C2  1  0.38958800  0.50377600  0.73495300  1
  C  C3  1  0.11041200  0.50377600  0.23495300  1
  C  C4  1  0.88958800  0.49622400  0.76504700  1
  C  C5  1  0.61041200  0.49622400  0.26504700  1
  C  C6  1  0.75168700  0.01682200  0.90818400  1
  C  C7  1  0.74831300  0.01682200  0.40818400  1
  C  C8  1  0.10906800  0.83622300  0.77022500  1
  C  C9  1  0.61483300  0.85771400  0.67163100  1
  C  C10  1  0.39295300  0.80227000  0.81627000  1
  C  C11  1  0.81093700  0.85348100  0.64776600  1
  C  C12  1  0.95333300  0.73979700  0.82994400  1
  C  C13  1  0.44467700  0.69641100  0.91982800  1
  C  C14  1  0.39093200  0.83622300  0.27022500  1
  C  C15  1  0.88516700  0.85771400  0.17163100  1
  C  C16  1  0.10704700  0.80227000  0.31627000  1
  C  C17  1  0.68906300  0.85348100  0.14776600  1
  C  C18  1  0.54666700  0.73979700  0.32994400  1
  C  C19  1  0.05532300  0.69641100  0.41982800  1
  C  C20  1  0.94467700  0.30358900  0.58017200  1
  C  C21  1  0.45333300  0.26020300  0.67005600  1
  C  C22  1  0.31093700  0.14651900  0.85223400  1
  C  C23  1  0.89295300  0.19773000  0.68373000  1
  C  C24  1  0.11483300  0.14228600  0.82836900  1
  C  C25  1  0.60906800  0.16377700  0.72977500  1
  C  C26  1  0.55532300  0.30358900  0.08017200  1
  C  C27  1  0.04666700  0.26020300  0.17005600  1
  C  C28  1  0.18906300  0.14651900  0.35223400  1
  C  C29  1  0.60704700  0.19773000  0.18373000  1
  C  C30  1  0.38516700  0.14228600  0.32836900  1
  C  C31  1  0.89093200  0.16377700  0.22977500  1
  C  C32  1  0.66034700  0.64242200  0.53835800  1
  C  C33  1  0.83965300  0.64242200  0.03835800  1
  C  C34  1  0.16034700  0.35757800  0.96164200  1
  C  C35  1  0.33965300  0.35757800  0.46164200  1
  Ni  Ni36  1  0.18916600  0.70987500  0.88958000  1
  Ni  Ni37  1  0.31083400  0.70987500  0.38958000  1
  Ni  Ni38  1  0.68916600  0.29012500  0.61042000  1
  Ni  Ni39  1  0.81083400  0.29012500  0.11042000  1
  Cu  Cu40  1  0.07395400  0.77438100  0.82947500  1
  Cu  Cu41  1  0.35488100  0.74053700  0.87520400  1
  Cu  Cu42  1  0.42604600  0.77438100  0.32947500  1
  Cu  Cu43  1  0.14511900  0.74053700  0.37520400  1
  Cu  Cu44  1  0.85488100  0.25946300  0.62479600  1
  Cu  Cu45  1  0.57395400  0.22561900  0.67052500  1
  Cu  Cu46  1  0.64511900  0.25946300  0.12479600  1
  Cu  Cu47  1  0.92604600  0.22561900  0.17052500  1
  C  C48  1  0.38741800  0.94563500  0.69044800  1
  C  C49  1  0.04853800  0.91962000  0.62245900  1
  C  C50  1  0.73248800  0.85018200  0.94249200  1
  C  C51  1  0.33555500  0.91981000  0.50014000  1
  C  C52  1  0.11258200  0.94563500  0.19044800  1
  C  C53  1  0.70810800  0.80064100  0.66218000  1
  C  C54  1  0.45146200  0.91962000  0.12245900  1
  C  C55  1  0.76751200  0.85018200  0.44249200  1
  C  C56  1  0.16444500  0.91981000  0.00014000  1
  C  C57  1  0.79189200  0.80064100  0.16218000  1
  C  C58  1  0.14083700  0.62293700  0.95929200  1
  C  C59  1  0.33872700  0.66118800  0.69082900  1
  C  C60  1  0.79878600  0.59266000  0.83733400  1
  C  C61  1  0.90814900  0.55148400  0.64071300  1
  C  C62  1  0.35916300  0.62293700  0.45929200  1
  C  C63  1  0.16127300  0.66118800  0.19082900  1
  C  C64  1  0.60944000  0.50294400  0.70335300  1
  C  C65  1  0.70121400  0.59266000  0.33733400  1
  C  C66  1  0.10944000  0.49705600  0.79664700  1
  C  C67  1  0.59185100  0.55148400  0.14071300  1
  C  C68  1  0.40814900  0.44851600  0.85928700  1
  C  C69  1  0.89056000  0.50294400  0.20335300  1
  C  C70  1  0.29878600  0.40734000  0.66266600  1
  C  C71  1  0.39056000  0.49705600  0.29664700  1
  C  C72  1  0.83872700  0.33881200  0.80917100  1
  C  C73  1  0.64083700  0.37706300  0.54070800  1
  C  C74  1  0.09185100  0.44851600  0.35928700  1
  C  C75  1  0.20121400  0.40734000  0.16266600  1
  C  C76  1  0.66127300  0.33881200  0.30917100  1
  C  C77  1  0.85916300  0.37706300  0.04070800  1
  C  C78  1  0.20810800  0.19935900  0.83782000  1
  C  C79  1  0.83555500  0.08019000  0.99986000  1
  C  C80  1  0.23248800  0.14981800  0.55750800  1
  C  C81  1  0.54853800  0.08038000  0.87754100  1
  C  C82  1  0.29189200  0.19935900  0.33782000  1
  C  C83  1  0.88741800  0.05436500  0.80955200  1
  C  C84  1  0.66444500  0.08019000  0.49986000  1
  C  C85  1  0.26751200  0.14981800  0.05750800  1
  C  C86  1  0.95146200  0.08038000  0.37754100  1
  C  C87  1  0.61258200  0.05436500  0.30955200  1
