# generated using pymatgen
data_Cu4Ni2C
_symmetry_space_group_name_H-M   'P 1'
_cell_length_a   7.68298000
_cell_length_b   12.56868800
_cell_length_c   30.11817300
_cell_angle_alpha   90.00000000
_cell_angle_beta   90.00000000
_cell_angle_gamma   90.00000000
_symmetry_Int_Tables_number   1
_chemical_formula_structural   Cu4Ni2C
_chemical_formula_sum   'Cu48 Ni24 C12'
_cell_volume   2908.36072912
_cell_formula_units_Z   12
loop_
 _symmetry_equiv_pos_site_id
 _symmetry_equiv_pos_as_xyz
  1  'x, y, z'
loop_
 _atom_site_type_symbol
 _atom_site_label
 _atom_site_symmetry_multiplicity
 _atom_site_fract_x
 _atom_site_fract_y
 _atom_site_fract_z
 _atom_site_occupancy
  C  C0  1  0.15392400  0.02756800  0.62122500  1
  C  C1  1  0.65392400  0.97243200  0.37877500  1
  C  C2  1  0.65392400  0.52756800  0.87877500  1
  C  C3  1  0.15392400  0.47243200  0.12122500  1
  C  C4  1  0.21734200  0.03359200  0.94105800  1
  C  C5  1  0.71734200  0.96640800  0.05894200  1
  C  C6  1  0.71734200  0.53359200  0.55894200  1
  C  C7  1  0.21734200  0.46640800  0.44105800  1
  C  C8  1  0.24968400  0.15174400  0.26532900  1
  C  C9  1  0.74968400  0.84825600  0.73467100  1
  C  C10  1  0.74968400  0.65174400  0.23467100  1
  C  C11  1  0.24968400  0.34825600  0.76532900  1
  Ni  Ni12  1  0.42096700  0.86911700  0.49761800  1
  Ni  Ni13  1  0.92096700  0.13088300  0.50238200  1
  Ni  Ni14  1  0.92096700  0.36911700  0.00238200  1
  Ni  Ni15  1  0.42096700  0.63088300  0.99761800  1
  Ni  Ni16  1  0.25584800  0.90743800  0.82856400  1
  Ni  Ni17  1  0.75584800  0.09256200  0.17143600  1
  Ni  Ni18  1  0.75584800  0.40743800  0.67143600  1
  Ni  Ni19  1  0.25584800  0.59256200  0.32856400  1
  Ni  Ni20  1  0.24777500  0.89777900  0.16149800  1
  Ni  Ni21  1  0.74777500  0.10222100  0.83850200  1
  Ni  Ni22  1  0.74777500  0.39777900  0.33850200  1
  Ni  Ni23  1  0.24777500  0.60222100  0.66149800  1
  Ni  Ni24  1  0.39001000  0.33845500  0.52580500  1
  Ni  Ni25  1  0.89001000  0.66154500  0.47419500  1
  Ni  Ni26  1  0.89001000  0.83845500  0.97419500  1
  Ni  Ni27  1  0.39001000  0.16154500  0.02580500  1
  Ni  Ni28  1  0.29845000  0.39452700  0.88150200  1
  Ni  Ni29  1  0.79845000  0.60547300  0.11849800  1
  Ni  Ni30  1  0.79845000  0.89452700  0.61849800  1
  Ni  Ni31  1  0.29845000  0.10547300  0.38150200  1
  Ni  Ni32  1  0.38178900  0.38386800  0.20441200  1
  Ni  Ni33  1  0.88178900  0.61613200  0.79558800  1
  Ni  Ni34  1  0.88178900  0.88386800  0.29558800  1
  Ni  Ni35  1  0.38178900  0.11613200  0.70441200  1
  Cu  Cu36  1  0.10210600  0.06710900  0.49936500  1
  Cu  Cu37  1  0.60210600  0.93289100  0.50063500  1
  Cu  Cu38  1  0.60210600  0.56710900  0.00063500  1
  Cu  Cu39  1  0.10210600  0.43289100  0.99936500  1
  Cu  Cu40  1  0.95885500  0.14327700  0.62295800  1
  Cu  Cu41  1  0.45885500  0.85672300  0.37704200  1
  Cu  Cu42  1  0.45885500  0.64327700  0.87704200  1
  Cu  Cu43  1  0.95885500  0.35672300  0.12295800  1
  Cu  Cu44  1  0.35513200  0.91926500  0.60986800  1
  Cu  Cu45  1  0.85513200  0.08073500  0.39013200  1
  Cu  Cu46  1  0.85513200  0.41926500  0.89013200  1
  Cu  Cu47  1  0.35513200  0.58073500  0.10986800  1
  Cu  Cu48  1  0.46794100  0.25725600  0.56582100  1
  Cu  Cu49  1  0.96794100  0.74274400  0.43417900  1
  Cu  Cu50  1  0.96794100  0.75725600  0.93417900  1
  Cu  Cu51  1  0.46794100  0.24274400  0.06582100  1
  Cu  Cu52  1  0.24176300  0.03369900  0.81878800  1
  Cu  Cu53  1  0.74176300  0.96630100  0.18121200  1
  Cu  Cu54  1  0.74176300  0.53369900  0.68121200  1
  Cu  Cu55  1  0.24176300  0.46630100  0.31878800  1
  Cu  Cu56  1  0.97154000  0.10509200  0.94091800  1
  Cu  Cu57  1  0.47154000  0.89490800  0.05908200  1
  Cu  Cu58  1  0.47154000  0.60509200  0.55908200  1
  Cu  Cu59  1  0.97154000  0.39490800  0.44091800  1
  Cu  Cu60  1  0.41751300  0.92273200  0.93190700  1
  Cu  Cu61  1  0.91751300  0.07726800  0.06809300  1
  Cu  Cu62  1  0.91751300  0.42273200  0.56809300  1
  Cu  Cu63  1  0.41751300  0.57726800  0.43190700  1
  Cu  Cu64  1  0.42540500  0.21473800  0.97359500  1
  Cu  Cu65  1  0.92540500  0.78526200  0.02640500  1
  Cu  Cu66  1  0.92540500  0.71473800  0.52640500  1
  Cu  Cu67  1  0.42540500  0.28526200  0.47359500  1
  Cu  Cu68  1  0.23846500  0.02591000  0.15919000  1
  Cu  Cu69  1  0.73846500  0.97409000  0.84081000  1
  Cu  Cu70  1  0.73846500  0.52591000  0.34081000  1
  Cu  Cu71  1  0.23846500  0.47409000  0.65919000  1
  Cu  Cu72  1  0.99996700  0.21214300  0.25656200  1
  Cu  Cu73  1  0.49996700  0.78785700  0.74343800  1
  Cu  Cu74  1  0.49996700  0.71214300  0.24343800  1
  Cu  Cu75  1  0.99996700  0.28785700  0.75656200  1
  Cu  Cu76  1  0.08891000  0.88548700  0.29116800  1
  Cu  Cu77  1  0.58891000  0.11451300  0.70883200  1
  Cu  Cu78  1  0.58891000  0.38548700  0.20883200  1
  Cu  Cu79  1  0.08891000  0.61451300  0.79116800  1
  Cu  Cu80  1  0.50041400  0.09634900  0.27800100  1
  Cu  Cu81  1  0.00041400  0.90365100  0.72199900  1
  Cu  Cu82  1  0.00041400  0.59634900  0.22199900  1
  Cu  Cu83  1  0.50041400  0.40365100  0.77800100  1
