# generated using pymatgen
data_CuNiC
_symmetry_space_group_name_H-M   'P 1'
_cell_length_a   3.09587500
_cell_length_b   9.49817300
_cell_length_c   14.28270542
_cell_angle_alpha   89.46209546
_cell_angle_beta   90.00000000
_cell_angle_gamma   90.00000000
_symmetry_Int_Tables_number   1
_chemical_formula_structural   CuNiC
_chemical_formula_sum   'Cu12 Ni12 C12'
_cell_volume   419.96667759
_cell_formula_units_Z   12
loop_
 _symmetry_equiv_pos_site_id
 _symmetry_equiv_pos_as_xyz
  1  'x, y, z'
loop_
 _atom_site_type_symbol
 _atom_site_label
 _atom_site_symmetry_multiplicity
 _atom_site_fract_x
 _atom_site_fract_y
 _atom_site_fract_z
 _atom_site_occupancy
  C  C0  1  0.00000000  0.98613400  0.99593500  1
  C  C1  1  0.00000000  0.99093000  0.33603700  1
  C  C2  1  0.00000000  0.99143200  0.66035400  1
  C  C3  1  0.50000000  0.71022200  0.16345800  1
  C  C4  1  0.50000000  0.77050900  0.49933200  1
  C  C5  1  0.50000000  0.77529000  0.82896200  1
  C  C6  1  0.00000000  0.49528500  0.32466700  1
  C  C7  1  0.00000000  0.48989000  0.00009000  1
  C  C8  1  0.00000000  0.48415400  0.66690900  1
  C  C9  1  0.50000000  0.27316900  0.16569200  1
  C  C10  1  0.50000000  0.25235300  0.52097900  1
  C  C11  1  0.50000000  0.27503300  0.83369600  1
  Ni  Ni12  1  0.50000000  0.90136500  0.59940300  1
  Ni  Ni13  1  0.50000000  0.90117600  0.94037000  1
  Ni  Ni14  1  0.00000000  0.85650000  0.76787400  1
  Ni  Ni15  1  0.00000000  0.84914600  0.42826100  1
  Ni  Ni16  1  0.00000000  0.65410600  0.23752400  1
  Ni  Ni17  1  0.50000000  0.59504900  0.05973100  1
  Ni  Ni18  1  0.50000000  0.39777500  0.27401200  1
  Ni  Ni19  1  0.50000000  0.40165500  0.93462700  1
  Ni  Ni20  1  0.50000000  0.41539000  0.59926200  1
  Ni  Ni21  1  0.00000000  0.34004000  0.10231300  1
  Ni  Ni22  1  0.00000000  0.34727200  0.76670800  1
  Ni  Ni23  1  0.00000000  0.15142900  0.56596000  1
  Cu  Cu24  1  0.50000000  0.90913000  0.26507100  1
  Cu  Cu25  1  0.00000000  0.84834600  0.10798000  1
  Cu  Cu26  1  0.00000000  0.65634500  0.56155600  1
  Cu  Cu27  1  0.00000000  0.65650700  0.89139600  1
  Cu  Cu28  1  0.50000000  0.59509000  0.40500600  1
  Cu  Cu29  1  0.50000000  0.60413800  0.72936200  1
  Cu  Cu30  1  0.00000000  0.34408300  0.43601900  1
  Cu  Cu31  1  0.00000000  0.14294300  0.23511300  1
  Cu  Cu32  1  0.00000000  0.14958100  0.90119500  1
  Cu  Cu33  1  0.50000000  0.09010700  0.06973000  1
  Cu  Cu34  1  0.50000000  0.09922200  0.39200400  1
  Cu  Cu35  1  0.50000000  0.09920300  0.73341000  1
