# generated using pymatgen
data_CuNiC6
_symmetry_space_group_name_H-M   'P 1'
_cell_length_a   5.03243000
_cell_length_b   6.34091200
_cell_length_c   10.81251579
_cell_angle_alpha   89.24618151
_cell_angle_beta   90.00000000
_cell_angle_gamma   90.00000000
_symmetry_Int_Tables_number   1
_chemical_formula_structural   CuNiC6
_chemical_formula_sum   'Cu4 Ni4 C24'
_cell_volume   344.99963445
_cell_formula_units_Z   4
loop_
 _symmetry_equiv_pos_site_id
 _symmetry_equiv_pos_as_xyz
  1  'x, y, z'
loop_
 _atom_site_type_symbol
 _atom_site_label
 _atom_site_symmetry_multiplicity
 _atom_site_fract_x
 _atom_site_fract_y
 _atom_site_fract_z
 _atom_site_occupancy
  C  C0  1  0.31413100  0.00008200  0.08650200  1
  C  C1  1  0.18586900  0.00008200  0.58650200  1
  C  C2  1  0.81296000  0.76824200  0.16946700  1
  C  C3  1  0.68704000  0.76824200  0.66946700  1
  C  C4  1  0.31296000  0.23175800  0.33053300  1
  C  C5  1  0.18704000  0.23175800  0.83053300  1
  C  C6  1  0.81413100  0.99991800  0.41349800  1
  C  C7  1  0.68586900  0.99991800  0.91349800  1
  Ni  Ni8  1  0.80333800  0.49333900  0.40482700  1
  Ni  Ni9  1  0.69666200  0.49333900  0.90482700  1
  Ni  Ni10  1  0.30333800  0.50666100  0.09517300  1
  Ni  Ni11  1  0.19666200  0.50666100  0.59517300  1
  Cu  Cu12  1  0.31575200  0.75835400  0.33832000  1
  Cu  Cu13  1  0.18424800  0.75835400  0.83832000  1
  Cu  Cu14  1  0.81575200  0.24164600  0.16168000  1
  Cu  Cu15  1  0.68424800  0.24164600  0.66168000  1
  C  C16  1  0.20661900  0.96592600  0.40775200  1
  C  C17  1  0.29338100  0.96592600  0.90775200  1
  C  C18  1  0.64526800  0.74998900  0.33794500  1
  C  C19  1  0.85473200  0.74998900  0.83794500  1
  C  C20  1  0.20684200  0.75142200  0.19316400  1
  C  C21  1  0.29315800  0.75142200  0.69316400  1
  C  C22  1  0.21070200  0.53355100  0.40888100  1
  C  C23  1  0.28929800  0.53355100  0.90888100  1
  C  C24  1  0.71070200  0.46644900  0.09111900  1
  C  C25  1  0.78929800  0.46644900  0.59111900  1
  C  C26  1  0.70684200  0.24857800  0.30683600  1
  C  C27  1  0.79315800  0.24857800  0.80683600  1
  C  C28  1  0.14526800  0.25001100  0.16205500  1
  C  C29  1  0.35473200  0.25001100  0.66205500  1
  C  C30  1  0.70661900  0.03407400  0.09224800  1
  C  C31  1  0.79338100  0.03407400  0.59224800  1
