# generated using pymatgen
data_CuNi3C
_symmetry_space_group_name_H-M   'P 1'
_cell_length_a   8.53720200
_cell_length_b   13.13900700
_cell_length_c   14.62223900
_cell_angle_alpha   90.00000000
_cell_angle_beta   90.00000000
_cell_angle_gamma   90.00000000
_symmetry_Int_Tables_number   1
_chemical_formula_structural   CuNi3C
_chemical_formula_sum   'Cu16 Ni48 C16'
_cell_volume   1640.18176641
_cell_formula_units_Z   16
loop_
 _symmetry_equiv_pos_site_id
 _symmetry_equiv_pos_as_xyz
  1  'x, y, z'
loop_
 _atom_site_type_symbol
 _atom_site_label
 _atom_site_symmetry_multiplicity
 _atom_site_fract_x
 _atom_site_fract_y
 _atom_site_fract_z
 _atom_site_occupancy
  C  C0  1  0.62994700  0.06257000  0.16968100  1
  C  C1  1  0.12994700  0.43743000  0.83031900  1
  C  C2  1  0.37005300  0.56257000  0.33031900  1
  C  C3  1  0.87005300  0.93743000  0.66968100  1
  C  C4  1  0.37005300  0.93743000  0.83031900  1
  C  C5  1  0.87005300  0.56257000  0.16968100  1
  C  C6  1  0.62994700  0.43743000  0.66968100  1
  C  C7  1  0.12994700  0.06257000  0.33031900  1
  C  C8  1  0.79279700  0.23049300  0.00710400  1
  C  C9  1  0.29279700  0.26950700  0.99289600  1
  C  C10  1  0.20720300  0.73049300  0.49289600  1
  C  C11  1  0.70720300  0.76950700  0.50710400  1
  C  C12  1  0.20720300  0.76950700  0.99289600  1
  C  C13  1  0.70720300  0.73049300  0.00710400  1
  C  C14  1  0.79279700  0.26950700  0.50710400  1
  C  C15  1  0.29279700  0.23049300  0.49289600  1
  Ni  Ni16  1  0.59125600  0.34998400  0.99074400  1
  Ni  Ni17  1  0.09125600  0.15001600  0.00925600  1
  Ni  Ni18  1  0.40874400  0.84998400  0.50925600  1
  Ni  Ni19  1  0.90874400  0.65001600  0.49074400  1
  Ni  Ni20  1  0.40874400  0.65001600  0.00925600  1
  Ni  Ni21  1  0.90874400  0.84998400  0.99074400  1
  Ni  Ni22  1  0.59125600  0.15001600  0.49074400  1
  Ni  Ni23  1  0.09125600  0.34998400  0.50925600  1
  Ni  Ni24  1  0.39581500  0.14536800  0.20259500  1
  Ni  Ni25  1  0.89581500  0.35463200  0.79740500  1
  Ni  Ni26  1  0.60418500  0.64536800  0.29740500  1
  Ni  Ni27  1  0.10418500  0.85463200  0.70259500  1
  Ni  Ni28  1  0.60418500  0.85463200  0.79740500  1
  Ni  Ni29  1  0.10418500  0.64536800  0.20259500  1
  Ni  Ni30  1  0.39581500  0.35463200  0.70259500  1
  Ni  Ni31  1  0.89581500  0.14536800  0.29740500  1
  Ni  Ni32  1  0.59558400  0.43384100  0.11055100  1
  Ni  Ni33  1  0.09558400  0.06615900  0.88944900  1
  Ni  Ni34  1  0.40441600  0.93384100  0.38944900  1
  Ni  Ni35  1  0.90441600  0.56615900  0.61055100  1
  Ni  Ni36  1  0.40441600  0.56615900  0.88944900  1
  Ni  Ni37  1  0.90441600  0.93384100  0.11055100  1
  Ni  Ni38  1  0.59558400  0.06615900  0.61055100  1
  Ni  Ni39  1  0.09558400  0.43384100  0.38944900  1
  Ni  Ni40  1  0.40086400  0.39940900  0.18935600  1
  Ni  Ni41  1  0.90086400  0.10059100  0.81064400  1
  Ni  Ni42  1  0.59913600  0.89940900  0.31064400  1
  Ni  Ni43  1  0.09913600  0.60059100  0.68935600  1
  Ni  Ni44  1  0.59913600  0.60059100  0.81064400  1
  Ni  Ni45  1  0.09913600  0.89940900  0.18935600  1
  Ni  Ni46  1  0.40086400  0.10059100  0.68935600  1
  Ni  Ni47  1  0.90086400  0.39940900  0.31064400  1
  Ni  Ni48  1  0.46036100  0.27583600  0.27080700  1
  Ni  Ni49  1  0.96036100  0.22416400  0.72919300  1
  Ni  Ni50  1  0.53963900  0.77583600  0.22919300  1
  Ni  Ni51  1  0.03963900  0.72416400  0.77080700  1
  Ni  Ni52  1  0.53963900  0.72416400  0.72919300  1
  Ni  Ni53  1  0.03963900  0.77583600  0.27080700  1
  Ni  Ni54  1  0.46036100  0.22416400  0.77080700  1
  Ni  Ni55  1  0.96036100  0.27583600  0.22919300  1
  Ni  Ni56  1  0.56822300  0.12800600  0.02470000  1
  Ni  Ni57  1  0.06822300  0.37199400  0.97530000  1
  Ni  Ni58  1  0.43177700  0.62800600  0.47530000  1
  Ni  Ni59  1  0.93177700  0.87199400  0.52470000  1
  Ni  Ni60  1  0.43177700  0.87199400  0.97530000  1
  Ni  Ni61  1  0.93177700  0.62800600  0.02470000  1
  Ni  Ni62  1  0.56822300  0.37199400  0.52470000  1
  Ni  Ni63  1  0.06822300  0.12800600  0.47530000  1
  Cu  Cu64  1  0.54471100  0.10365300  0.13704800  1
  Cu  Cu65  1  0.04471100  0.39634700  0.86295200  1
  Cu  Cu66  1  0.45528900  0.60365300  0.36295200  1
  Cu  Cu67  1  0.95528900  0.89634700  0.63704800  1
  Cu  Cu68  1  0.45528900  0.89634700  0.86295200  1
  Cu  Cu69  1  0.95528900  0.60365300  0.13704800  1
  Cu  Cu70  1  0.54471100  0.39634700  0.63704800  1
  Cu  Cu71  1  0.04471100  0.10365300  0.36295200  1
  Cu  Cu72  1  0.67268600  0.23482200  0.00808400  1
  Cu  Cu73  1  0.17268600  0.26517800  0.99191600  1
  Cu  Cu74  1  0.32731400  0.73482200  0.49191600  1
  Cu  Cu75  1  0.82731400  0.76517800  0.50808400  1
  Cu  Cu76  1  0.32731400  0.76517800  0.99191600  1
  Cu  Cu77  1  0.82731400  0.73482200  0.00808400  1
  Cu  Cu78  1  0.67268600  0.26517800  0.50808400  1
  Cu  Cu79  1  0.17268600  0.23482200  0.49191600  1
