# generated using pymatgen
data_Cu2Ni12C13
_symmetry_space_group_name_H-M   'P 1'
_cell_length_a   10.81313600
_cell_length_b   10.81313600
_cell_length_c   10.81313600
_cell_angle_alpha   90.00000000
_cell_angle_beta   90.00000000
_cell_angle_gamma   90.00000000
_symmetry_Int_Tables_number   1
_chemical_formula_structural   Cu2Ni12C13
_chemical_formula_sum   'Cu8 Ni48 C52'
_cell_volume   1264.31414215
_cell_formula_units_Z   4
loop_
 _symmetry_equiv_pos_site_id
 _symmetry_equiv_pos_as_xyz
  1  'x, y, z'
loop_
 _atom_site_type_symbol
 _atom_site_label
 _atom_site_symmetry_multiplicity
 _atom_site_fract_x
 _atom_site_fract_y
 _atom_site_fract_z
 _atom_site_occupancy
  C  C0  1  0.50000000  0.50000000  0.00000000  1
  C  C1  1  0.50000000  0.00000000  0.50000000  1
  C  C2  1  0.00000000  0.50000000  0.50000000  1
  C  C3  1  0.00000000  0.00000000  0.00000000  1
  Ni  Ni4  1  0.03207300  0.58086300  0.26391000  1
  Ni  Ni5  1  0.96792700  0.08086300  0.23609000  1
  Ni  Ni6  1  0.46792700  0.41913700  0.76391000  1
  Ni  Ni7  1  0.53207300  0.91913700  0.73609000  1
  Ni  Ni8  1  0.26391000  0.03207300  0.58086300  1
  Ni  Ni9  1  0.23609000  0.96792700  0.08086300  1
  Ni  Ni10  1  0.76391000  0.46792700  0.41913700  1
  Ni  Ni11  1  0.73609000  0.53207300  0.91913700  1
  Ni  Ni12  1  0.58086300  0.26391000  0.03207300  1
  Ni  Ni13  1  0.08086300  0.23609000  0.96792700  1
  Ni  Ni14  1  0.41913700  0.76391000  0.46792700  1
  Ni  Ni15  1  0.91913700  0.73609000  0.53207300  1
  Ni  Ni16  1  0.96792700  0.41913700  0.73609000  1
  Ni  Ni17  1  0.03207300  0.91913700  0.76391000  1
  Ni  Ni18  1  0.53207300  0.58086300  0.23609000  1
  Ni  Ni19  1  0.46792700  0.08086300  0.26391000  1
  Ni  Ni20  1  0.73609000  0.96792700  0.41913700  1
  Ni  Ni21  1  0.76391000  0.03207300  0.91913700  1
  Ni  Ni22  1  0.23609000  0.53207300  0.58086300  1
  Ni  Ni23  1  0.26391000  0.46792700  0.08086300  1
  Ni  Ni24  1  0.41913700  0.73609000  0.96792700  1
  Ni  Ni25  1  0.91913700  0.76391000  0.03207300  1
  Ni  Ni26  1  0.58086300  0.23609000  0.53207300  1
  Ni  Ni27  1  0.08086300  0.26391000  0.46792700  1
  Ni  Ni28  1  0.26548900  0.43319900  0.94163800  1
  Ni  Ni29  1  0.73451100  0.93319900  0.55836200  1
  Ni  Ni30  1  0.23451100  0.56680100  0.44163800  1
  Ni  Ni31  1  0.76548900  0.06680100  0.05836200  1
  Ni  Ni32  1  0.94163800  0.26548900  0.43319900  1
  Ni  Ni33  1  0.55836200  0.73451100  0.93319900  1
  Ni  Ni34  1  0.44163800  0.23451100  0.56680100  1
  Ni  Ni35  1  0.05836200  0.76548900  0.06680100  1
  Ni  Ni36  1  0.43319900  0.94163800  0.26548900  1
  Ni  Ni37  1  0.93319900  0.55836200  0.73451100  1
  Ni  Ni38  1  0.56680100  0.44163800  0.23451100  1
  Ni  Ni39  1  0.06680100  0.05836200  0.76548900  1
  Ni  Ni40  1  0.73451100  0.56680100  0.05836200  1
  Ni  Ni41  1  0.26548900  0.06680100  0.44163800  1
  Ni  Ni42  1  0.76548900  0.43319900  0.55836200  1
  Ni  Ni43  1  0.23451100  0.93319900  0.94163800  1
  Ni  Ni44  1  0.05836200  0.73451100  0.56680100  1
  Ni  Ni45  1  0.44163800  0.26548900  0.06680100  1
  Ni  Ni46  1  0.55836200  0.76548900  0.43319900  1
  Ni  Ni47  1  0.94163800  0.23451100  0.93319900  1
  Ni  Ni48  1  0.56680100  0.05836200  0.73451100  1
  Ni  Ni49  1  0.06680100  0.44163800  0.26548900  1
  Ni  Ni50  1  0.43319900  0.55836200  0.76548900  1
  Ni  Ni51  1  0.93319900  0.94163800  0.23451100  1
  Cu  Cu52  1  0.22637100  0.77362900  0.27362900  1
  Cu  Cu53  1  0.77362900  0.27362900  0.22637100  1
  Cu  Cu54  1  0.27362900  0.22637100  0.77362900  1
  Cu  Cu55  1  0.72637100  0.72637100  0.72637100  1
  Cu  Cu56  1  0.77362900  0.22637100  0.72637100  1
  Cu  Cu57  1  0.22637100  0.72637100  0.77362900  1
  Cu  Cu58  1  0.72637100  0.77362900  0.22637100  1
  Cu  Cu59  1  0.27362900  0.27362900  0.27362900  1
  C  C60  1  0.32709700  0.64645900  0.68489100  1
  C  C61  1  0.67290300  0.14645900  0.81510900  1
  C  C62  1  0.17290300  0.35354100  0.18489100  1
  C  C63  1  0.82709700  0.85354100  0.31510900  1
  C  C64  1  0.68489100  0.32709700  0.64645900  1
  C  C65  1  0.81510900  0.67290300  0.14645900  1
  C  C66  1  0.18489100  0.17290300  0.35354100  1
  C  C67  1  0.31510900  0.82709700  0.85354100  1
  C  C68  1  0.64645900  0.68489100  0.32709700  1
  C  C69  1  0.14645900  0.81510900  0.67290300  1
  C  C70  1  0.35354100  0.18489100  0.17290300  1
  C  C71  1  0.85354100  0.31510900  0.82709700  1
  C  C72  1  0.67290300  0.35354100  0.31510900  1
  C  C73  1  0.32709700  0.85354100  0.18489100  1
  C  C74  1  0.82709700  0.64645900  0.81510900  1
  C  C75  1  0.17290300  0.14645900  0.68489100  1
  C  C76  1  0.31510900  0.67290300  0.35354100  1
  C  C77  1  0.18489100  0.32709700  0.85354100  1
  C  C78  1  0.81510900  0.82709700  0.64645900  1
  C  C79  1  0.68489100  0.17290300  0.14645900  1
  C  C80  1  0.35354100  0.31510900  0.67290300  1
  C  C81  1  0.85354100  0.18489100  0.32709700  1
  C  C82  1  0.64645900  0.81510900  0.82709700  1
  C  C83  1  0.14645900  0.68489100  0.17290300  1
  C  C84  1  0.49159300  0.49810200  0.80353500  1
  C  C85  1  0.50840700  0.99810200  0.69646500  1
  C  C86  1  0.00840700  0.50189800  0.30353500  1
  C  C87  1  0.99159300  0.00189800  0.19646500  1
  C  C88  1  0.80353500  0.49159300  0.49810200  1
  C  C89  1  0.69646500  0.50840700  0.99810200  1
  C  C90  1  0.30353500  0.00840700  0.50189800  1
  C  C91  1  0.19646500  0.99159300  0.00189800  1
  C  C92  1  0.49810200  0.80353500  0.49159300  1
  C  C93  1  0.99810200  0.69646500  0.50840700  1
  C  C94  1  0.50189800  0.30353500  0.00840700  1
  C  C95  1  0.00189800  0.19646500  0.99159300  1
  C  C96  1  0.50840700  0.50189800  0.19646500  1
  C  C97  1  0.49159300  0.00189800  0.30353500  1
  C  C98  1  0.99159300  0.49810200  0.69646500  1
  C  C99  1  0.00840700  0.99810200  0.80353500  1
  C  C100  1  0.19646500  0.50840700  0.50189800  1
  C  C101  1  0.30353500  0.49159300  0.00189800  1
  C  C102  1  0.69646500  0.99159300  0.49810200  1
  C  C103  1  0.80353500  0.00840700  0.99810200  1
  C  C104  1  0.50189800  0.19646500  0.50840700  1
  C  C105  1  0.00189800  0.30353500  0.49159300  1
  C  C106  1  0.49810200  0.69646500  0.99159300  1
  C  C107  1  0.99810200  0.80353500  0.00840700  1
