# generated using pymatgen
data_CuNiC10
_symmetry_space_group_name_H-M   'P 1'
_cell_length_a   6.85033500
_cell_length_b   4.75945800
_cell_length_c   9.89676935
_cell_angle_alpha   82.78185229
_cell_angle_beta   90.00000000
_cell_angle_gamma   90.00000000
_symmetry_Int_Tables_number   1
_chemical_formula_structural   CuNiC10
_chemical_formula_sum   'Cu2 Ni2 C20'
_cell_volume   320.11589822
_cell_formula_units_Z   2
loop_
 _symmetry_equiv_pos_site_id
 _symmetry_equiv_pos_as_xyz
  1  'x, y, z'
loop_
 _atom_site_type_symbol
 _atom_site_label
 _atom_site_symmetry_multiplicity
 _atom_site_fract_x
 _atom_site_fract_y
 _atom_site_fract_z
 _atom_site_occupancy
  Ni  Ni0  1  0.75000000  0.11591300  0.63710000  1
  Ni  Ni1  1  0.25000000  0.88408700  0.36290000  1
  Cu  Cu2  1  0.25000000  0.85390200  0.82467900  1
  Cu  Cu3  1  0.75000000  0.14609800  0.17532100  1
  C  C4  1  0.75000000  0.64927700  0.92916800  1
  C  C5  1  0.25000000  0.35072300  0.07083200  1
  C  C6  1  0.25000000  0.33472000  0.60367200  1
  C  C7  1  0.75000000  0.66528000  0.39632800  1
  C  C8  1  0.25000000  0.33969600  0.45596400  1
  C  C9  1  0.75000000  0.66030400  0.54403600  1
  C  C10  1  0.25000000  0.63145800  0.63813000  1
  C  C11  1  0.75000000  0.36854200  0.36187000  1
  C  C12  1  0.07524600  0.23961000  0.14776200  1
  C  C13  1  0.57524600  0.76039000  0.85223800  1
  C  C14  1  0.92475400  0.76039000  0.85223800  1
  C  C15  1  0.42475400  0.23961000  0.14776200  1
  C  C16  1  0.75000000  0.33433400  0.94819700  1
  C  C17  1  0.25000000  0.66566600  0.05180300  1
  C  C18  1  0.75000000  0.73686000  0.06994700  1
  C  C19  1  0.25000000  0.26314000  0.93005300  1
  C  C20  1  0.57853100  0.82362800  0.32921700  1
  C  C21  1  0.07853100  0.17637200  0.67078300  1
  C  C22  1  0.42146900  0.17637200  0.67078300  1
  C  C23  1  0.92146900  0.82362800  0.32921700  1
