# generated using pymatgen
data_Cu7NiC16
_symmetry_space_group_name_H-M   'P 1'
_cell_length_a   7.43217040
_cell_length_b   7.43217040
_cell_length_c   6.46268434
_cell_angle_alpha   72.02095273
_cell_angle_beta   72.02095273
_cell_angle_gamma   59.17338316
_symmetry_Int_Tables_number   1
_chemical_formula_structural   Cu7NiC16
_chemical_formula_sum   'Cu7 Ni1 C16'
_cell_volume   286.58594636
_cell_formula_units_Z   1
loop_
 _symmetry_equiv_pos_site_id
 _symmetry_equiv_pos_as_xyz
  1  'x, y, z'
loop_
 _atom_site_type_symbol
 _atom_site_label
 _atom_site_symmetry_multiplicity
 _atom_site_fract_x
 _atom_site_fract_y
 _atom_site_fract_z
 _atom_site_occupancy
  Ni  Ni0  1  0.00002500  0.00002500  0.99903800  1
  Cu  Cu1  1  0.25218000  0.74979900  0.49814700  1
  Cu  Cu2  1  0.25218900  0.25218900  0.49815200  1
  Cu  Cu3  1  0.49837500  0.49837500  0.99786600  1
  Cu  Cu4  1  0.74979900  0.25218000  0.49814700  1
  Cu  Cu5  1  0.50216200  0.99572100  0.00171800  1
  Cu  Cu6  1  0.74917500  0.74917500  0.50400100  1
  Cu  Cu7  1  0.99572100  0.50216200  0.00171800  1
  C  C8  1  0.07697100  0.07697100  0.63614500  1
  C  C9  1  0.20185700  0.20185700  0.90152800  1
  C  C10  1  0.42294200  0.92624100  0.34934200  1
  C  C11  1  0.17867400  0.67022300  0.84897500  1
  C  C12  1  0.31676400  0.78945600  0.10580100  1
  C  C13  1  0.04909300  0.54897500  0.59807000  1
  C  C14  1  0.70550300  0.70550300  0.88859700  1
  C  C15  1  0.57548900  0.57548900  0.65043600  1
  C  C16  1  0.44702500  0.44702500  0.41145200  1
  C  C17  1  0.32666000  0.32666000  0.15276200  1
  C  C18  1  0.92624100  0.42294200  0.34934200  1
  C  C19  1  0.54897500  0.04909300  0.59807000  1
  C  C20  1  0.67022300  0.17867400  0.84897500  1
  C  C21  1  0.78945600  0.31676400  0.10580100  1
  C  C22  1  0.94801300  0.94801300  0.40324300  1
  C  C23  1  0.81650000  0.81650000  0.15267300  1
