# generated using pymatgen
data_Cu2NiC14
_symmetry_space_group_name_H-M   'P 1'
_cell_length_a   7.41122100
_cell_length_b   7.99658100
_cell_length_c   10.57565384
_cell_angle_alpha   72.87039614
_cell_angle_beta   90.00000000
_cell_angle_gamma   90.00000000
_symmetry_Int_Tables_number   1
_chemical_formula_structural   Cu2NiC14
_chemical_formula_sum   'Cu8 Ni4 C56'
_cell_volume   598.95761145
_cell_formula_units_Z   4
loop_
 _symmetry_equiv_pos_site_id
 _symmetry_equiv_pos_as_xyz
  1  'x, y, z'
loop_
 _atom_site_type_symbol
 _atom_site_label
 _atom_site_symmetry_multiplicity
 _atom_site_fract_x
 _atom_site_fract_y
 _atom_site_fract_z
 _atom_site_occupancy
  C  C0  1  0.42363900  0.03859300  0.82441900  1
  C  C1  1  0.92363900  0.96140700  0.67558100  1
  C  C2  1  0.57636100  0.96140700  0.17558100  1
  C  C3  1  0.07636100  0.03859300  0.32441900  1
  C  C4  1  0.54139900  0.91751500  0.73948600  1
  C  C5  1  0.04139900  0.08248500  0.76051400  1
  C  C6  1  0.45860100  0.08248500  0.26051400  1
  C  C7  1  0.95860100  0.91751500  0.23948600  1
  C  C8  1  0.49739200  0.13526900  0.66806100  1
  C  C9  1  0.99739200  0.86473100  0.83193900  1
  C  C10  1  0.50260800  0.86473100  0.33193900  1
  C  C11  1  0.00260800  0.13526900  0.16806100  1
  C  C12  1  0.69806900  0.01508100  0.90208400  1
  C  C13  1  0.19806900  0.98491900  0.59791600  1
  C  C14  1  0.30193100  0.98491900  0.09791600  1
  C  C15  1  0.80193100  0.01508100  0.40208400  1
  C  C16  1  0.69215800  0.34300700  0.37475000  1
  C  C17  1  0.19215800  0.65699300  0.12525000  1
  C  C18  1  0.30784200  0.65699300  0.62525000  1
  C  C19  1  0.80784200  0.34300700  0.87475000  1
  C  C20  1  0.73694900  0.52854800  0.41451600  1
  C  C21  1  0.23694900  0.47145200  0.08548400  1
  C  C22  1  0.26305100  0.47145200  0.58548400  1
  C  C23  1  0.76305100  0.52854800  0.91451600  1
  C  C24  1  0.91148700  0.42001800  0.36330100  1
  C  C25  1  0.41148700  0.57998200  0.13669900  1
  C  C26  1  0.08851300  0.57998200  0.63669900  1
  C  C27  1  0.58851300  0.42001800  0.86330100  1
  C  C28  1  0.81973000  0.39391700  0.59798200  1
  C  C29  1  0.31973000  0.60608300  0.90201800  1
  C  C30  1  0.18027000  0.60608300  0.40201800  1
  C  C31  1  0.68027000  0.39391700  0.09798200  1
  Ni  Ni32  1  0.69219800  0.72709900  0.58645000  1
  Ni  Ni33  1  0.19219800  0.27290100  0.91355000  1
  Ni  Ni34  1  0.30780200  0.27290100  0.41355000  1
  Ni  Ni35  1  0.80780200  0.72709900  0.08645000  1
  Cu  Cu36  1  0.52762200  0.03935900  0.75722700  1
  Cu  Cu37  1  0.02762200  0.96064100  0.74277300  1
  Cu  Cu38  1  0.47237800  0.96064100  0.24277300  1
  Cu  Cu39  1  0.97237800  0.03935900  0.25722700  1
  Cu  Cu40  1  0.78957900  0.40669500  0.41465500  1
  Cu  Cu41  1  0.28957900  0.59330500  0.08534500  1
  Cu  Cu42  1  0.21042100  0.59330500  0.58534500  1
  Cu  Cu43  1  0.71042100  0.40669500  0.91465500  1
  C  C44  1  0.62400400  0.70171100  0.46032100  1
  C  C45  1  0.12400400  0.29828900  0.03967900  1
  C  C46  1  0.37599600  0.29828900  0.53967900  1
  C  C47  1  0.87599600  0.70171100  0.96032100  1
  C  C48  1  0.82308800  0.58360400  0.64902500  1
  C  C49  1  0.32308800  0.41639600  0.85097500  1
  C  C50  1  0.17691200  0.41639600  0.35097500  1
  C  C51  1  0.67691200  0.58360400  0.14902500  1
  C  C52  1  0.54052000  0.72488000  0.67889500  1
  C  C53  1  0.04052000  0.27512000  0.82110500  1
  C  C54  1  0.45948000  0.27512000  0.32110500  1
  C  C55  1  0.95948000  0.72488000  0.17889500  1
  C  C56  1  0.78571300  0.90182500  0.55588100  1
  C  C57  1  0.28571300  0.09817500  0.94411900  1
  C  C58  1  0.21428700  0.09817500  0.44411900  1
  C  C59  1  0.71428700  0.90182500  0.05588100  1
  C  C60  1  0.69050800  0.09009500  0.80596100  1
  C  C61  1  0.19050800  0.90990500  0.69403900  1
  C  C62  1  0.30949200  0.90990500  0.19403900  1
  C  C63  1  0.80949200  0.09009500  0.30596100  1
  C  C64  1  0.82259100  0.30563500  0.54747300  1
  C  C65  1  0.32259100  0.69436500  0.95252700  1
  C  C66  1  0.17740900  0.69436500  0.45252700  1
  C  C67  1  0.67740900  0.30563500  0.04747300  1
