# generated using pymatgen
data_CuNi4C3
_symmetry_space_group_name_H-M   'P 1'
_cell_length_a   5.37201066
_cell_length_b   10.22574360
_cell_length_c   7.34716090
_cell_angle_alpha   76.01483244
_cell_angle_beta   73.07426687
_cell_angle_gamma   99.89994098
_symmetry_Int_Tables_number   1
_chemical_formula_structural   CuNi4C3
_chemical_formula_sum   'Cu4 Ni16 C12'
_cell_volume   361.68635142
_cell_formula_units_Z   4
loop_
 _symmetry_equiv_pos_site_id
 _symmetry_equiv_pos_as_xyz
  1  'x, y, z'
loop_
 _atom_site_type_symbol
 _atom_site_label
 _atom_site_symmetry_multiplicity
 _atom_site_fract_x
 _atom_site_fract_y
 _atom_site_fract_z
 _atom_site_occupancy
  C  C0  1  0.98103900  0.36423800  0.44655100  1
  C  C1  1  0.48104000  0.86423800  0.94655100  1
  C  C2  1  0.01896000  0.63576000  0.55345000  1
  C  C3  1  0.51895900  0.13575900  0.05345200  1
  C  C4  1  0.49999900  0.50000200  0.50000200  1
  C  C5  1  0.99999600  0.00000000  0.00000300  1
  C  C6  1  0.50001900  0.49999100  0.99996500  1
  C  C7  1  0.99999900  0.00003200  0.50000700  1
  C  C8  1  0.52040800  0.16043300  0.59989400  1
  C  C9  1  0.02040400  0.66043400  0.09989200  1
  C  C10  1  0.47959000  0.83956500  0.40011100  1
  C  C11  1  0.97959100  0.33956500  0.90011000  1
  Ni  Ni12  1  0.56308000  0.31551000  0.59792000  1
  Ni  Ni13  1  0.06308300  0.81550800  0.09792100  1
  Ni  Ni14  1  0.43691900  0.68448900  0.40208300  1
  Ni  Ni15  1  0.93692000  0.18448800  0.90207900  1
  Ni  Ni16  1  0.33887400  0.12529700  0.48265400  1
  Ni  Ni17  1  0.83887100  0.62529300  0.98265700  1
  Ni  Ni18  1  0.66113300  0.87471000  0.51734300  1
  Ni  Ni19  1  0.16112300  0.37470400  0.01734700  1
  Ni  Ni20  1  0.81423000  0.15377600  0.50258600  1
  Ni  Ni21  1  0.31421500  0.65377500  0.00259000  1
  Ni  Ni22  1  0.18577000  0.84622300  0.49741400  1
  Ni  Ni23  1  0.68577800  0.34622100  0.99741700  1
  Ni  Ni24  1  0.60094000  0.93571200  0.17582800  1
  Ni  Ni25  1  0.10094900  0.43571500  0.67582700  1
  Ni  Ni26  1  0.39905300  0.06428400  0.82417500  1
  Ni  Ni27  1  0.89905700  0.56428300  0.32417400  1
  Cu  Cu28  1  0.13486600  0.06387500  0.20379600  1
  Cu  Cu29  1  0.63486400  0.56387200  0.70379700  1
  Cu  Cu30  1  0.86513200  0.93612600  0.79620700  1
  Cu  Cu31  1  0.36513900  0.43612400  0.29620000  1
