# generated using pymatgen
data_Cu3(Ni2C9)2
_symmetry_space_group_name_H-M   'P 1'
_cell_length_a   5.12162700
_cell_length_b   7.53909692
_cell_length_c   8.22377586
_cell_angle_alpha   90.96147854
_cell_angle_beta   91.83453203
_cell_angle_gamma   103.52842591
_symmetry_Int_Tables_number   1
_chemical_formula_structural   Cu3(Ni2C9)2
_chemical_formula_sum   'Cu3 Ni4 C18'
_cell_volume   308.47511277
_cell_formula_units_Z   1
loop_
 _symmetry_equiv_pos_site_id
 _symmetry_equiv_pos_as_xyz
  1  'x, y, z'
loop_
 _atom_site_type_symbol
 _atom_site_label
 _atom_site_symmetry_multiplicity
 _atom_site_fract_x
 _atom_site_fract_y
 _atom_site_fract_z
 _atom_site_occupancy
  C  C0  1  0.99825700  0.49715200  0.00309800  1
  C  C1  1  0.49958900  0.00176700  0.49856900  1
  Ni  Ni2  1  0.10820600  0.25721400  0.66279500  1
  Ni  Ni3  1  0.38339000  0.22874300  0.14521500  1
  Ni  Ni4  1  0.61058700  0.76256600  0.85083300  1
  Ni  Ni5  1  0.89141100  0.74405600  0.33741200  1
  Cu  Cu6  1  0.39672800  0.44737000  0.55160800  1
  Cu  Cu7  1  0.60066800  0.54988800  0.44368900  1
  Cu  Cu8  1  0.94707200  0.97860000  0.98658200  1
  C  C9  1  0.13838600  0.85129800  0.43701000  1
  C  C10  1  0.01995700  0.30944400  0.82948900  1
  C  C11  1  0.20277000  0.37370900  0.15459400  1
  C  C12  1  0.21226000  0.44527600  0.57358300  1
  C  C13  1  0.35105200  0.65924700  0.93327100  1
  C  C14  1  0.54070700  0.81083400  0.67575300  1
  C  C15  1  0.24150100  0.06412200  0.04795500  1
  C  C16  1  0.33258600  0.15533000  0.66884600  1
  C  C17  1  0.66712500  0.84604600  0.33046900  1
  C  C18  1  0.74581100  0.93724800  0.95061100  1
  C  C19  1  0.45769300  0.19143400  0.32488100  1
  C  C20  1  0.65139300  0.34219000  0.06868800  1
  C  C21  1  0.78826700  0.55652300  0.42765800  1
  C  C22  1  0.80392700  0.63073900  0.84423700  1
  C  C23  1  0.97788700  0.69192400  0.17021200  1
  C  C24  1  0.86165300  0.14918000  0.56304300  1
