# generated using pymatgen
data_Cu3NiC24
_symmetry_space_group_name_H-M   'P 1'
_cell_length_a   9.29801300
_cell_length_b   10.33911553
_cell_length_c   10.44054524
_cell_angle_alpha   113.52751506
_cell_angle_beta   93.32651849
_cell_angle_gamma   98.81163476
_symmetry_Int_Tables_number   1
_chemical_formula_structural   Cu3NiC24
_chemical_formula_sum   'Cu6 Ni2 C48'
_cell_volume   901.48312008
_cell_formula_units_Z   2
loop_
 _symmetry_equiv_pos_site_id
 _symmetry_equiv_pos_as_xyz
  1  'x, y, z'
loop_
 _atom_site_type_symbol
 _atom_site_label
 _atom_site_symmetry_multiplicity
 _atom_site_fract_x
 _atom_site_fract_y
 _atom_site_fract_z
 _atom_site_occupancy
  C  C0  1  0.60264800  0.16149800  0.37348100  1
  C  C1  1  0.39735200  0.83850200  0.62651900  1
  C  C2  1  0.51650300  0.16798100  0.98619800  1
  C  C3  1  0.48349700  0.83201900  0.01380200  1
  C  C4  1  0.85983000  0.52518400  0.30476900  1
  C  C5  1  0.14017000  0.47481600  0.69523100  1
  Ni  Ni6  1  0.82145800  0.03420000  0.05028000  1
  Ni  Ni7  1  0.17854200  0.96580000  0.94972000  1
  Cu  Cu8  1  0.85005600  0.82930600  0.66222700  1
  Cu  Cu9  1  0.14994400  0.17069400  0.33777300  1
  Cu  Cu10  1  0.86296500  0.64682200  0.86716300  1
  Cu  Cu11  1  0.13703500  0.35317800  0.13283700  1
  Cu  Cu12  1  0.97070100  0.18492500  0.79821000  1
  Cu  Cu13  1  0.02929900  0.81507500  0.20179000  1
  C  C14  1  0.91605600  0.69294700  0.53189000  1
  C  C15  1  0.08394400  0.30705300  0.46811000  1
  C  C16  1  0.68641400  0.84230500  0.57960500  1
  C  C17  1  0.31358600  0.15769500  0.42039500  1
  C  C18  1  0.75375000  0.72638800  0.76297200  1
  C  C19  1  0.24625000  0.27361200  0.23702800  1
  C  C20  1  0.99061200  0.99275800  0.67546300  1
  C  C21  1  0.00938800  0.00724200  0.32453700  1
  C  C22  1  0.95814300  0.17615200  0.17663600  1
  C  C23  1  0.04185700  0.82384800  0.82336400  1
  C  C24  1  0.82887200  0.02877300  0.87983800  1
  C  C25  1  0.17112800  0.97122700  0.12016200  1
  C  C26  1  0.71997600  0.56134600  0.92227400  1
  C  C27  1  0.28002400  0.43865400  0.07772600  1
  C  C28  1  0.91182500  0.50875900  0.72597800  1
  C  C29  1  0.08817500  0.49124100  0.27402200  1
  C  C30  1  0.96571700  0.31871600  0.99410800  1
  C  C31  1  0.03428300  0.68128400  0.00589200  1
  C  C32  1  0.85209900  0.86896800  0.04394100  1
  C  C33  1  0.14790100  0.13103200  0.95605900  1
  C  C34  1  0.11876900  0.28948700  0.76788900  1
  C  C35  1  0.88123100  0.71051300  0.23211100  1
  C  C36  1  0.82482200  0.20595400  0.70444300  1
  C  C37  1  0.17517800  0.79404600  0.29555700  1
  C  C38  1  0.64882400  0.05748000  0.09891300  1
  C  C39  1  0.35117600  0.94252000  0.90108700  1
  C  C40  1  0.53891900  0.07953000  0.65055400  1
  C  C41  1  0.46108100  0.92047000  0.34944600  1
  C  C42  1  0.66916000  0.88711700  0.25907800  1
  C  C43  1  0.33084000  0.11288300  0.74092200  1
  C  C44  1  0.44498400  0.61749600  0.74764800  1
  C  C45  1  0.55501600  0.38250400  0.25235200  1
  C  C46  1  0.55746000  0.20853400  0.67375000  1
  C  C47  1  0.44254000  0.79146600  0.32625100  1
  C  C48  1  0.81828100  0.30515600  0.34846800  1
  C  C49  1  0.18171900  0.69484400  0.65153200  1
  C  C50  1  0.62861800  0.75981400  0.23700000  1
  C  C51  1  0.37138200  0.24018600  0.76300000  1
  C  C52  1  0.46864600  0.49495000  0.71627300  1
  C  C53  1  0.53135400  0.50505000  0.28372700  1
  C  C54  1  0.25373000  0.64557800  0.93905900  1
  C  C55  1  0.74627000  0.35442200  0.06094100  1
