# generated using pymatgen
data_Cu(NiC6)5
_symmetry_space_group_name_H-M   'P 1'
_cell_length_a   8.63716222
_cell_length_b   8.63716222
_cell_length_c   8.63716208
_cell_angle_alpha   59.80949488
_cell_angle_beta   59.80949488
_cell_angle_gamma   59.80949694
_symmetry_Int_Tables_number   1
_chemical_formula_structural   Cu(NiC6)5
_chemical_formula_sum   'Cu1 Ni5 C30'
_cell_volume   453.64497758
_cell_formula_units_Z   1
loop_
 _symmetry_equiv_pos_site_id
 _symmetry_equiv_pos_as_xyz
  1  'x, y, z'
loop_
 _atom_site_type_symbol
 _atom_site_label
 _atom_site_symmetry_multiplicity
 _atom_site_fract_x
 _atom_site_fract_y
 _atom_site_fract_z
 _atom_site_occupancy
  Ni  Ni0  1  0.00025800  0.00025800  0.00025800  1
  Ni  Ni1  1  0.35683300  0.35683300  0.35683300  1
  Ni  Ni2  1  0.50090700  0.50090700  0.50090700  1
  Ni  Ni3  1  0.14418100  0.14418100  0.14418100  1
  Ni  Ni4  1  0.64385900  0.64385900  0.64385900  1
  Cu  Cu5  1  0.85649200  0.85649200  0.85649200  1
  C  C6  1  0.45762500  0.75019100  0.04126500  1
  C  C7  1  0.75019100  0.04126500  0.45762500  1
  C  C8  1  0.04126500  0.45762500  0.75019100  1
  C  C9  1  0.95902900  0.54058400  0.25112700  1
  C  C10  1  0.25112700  0.95902900  0.54058400  1
  C  C11  1  0.54058400  0.25112700  0.95902900  1
  C  C12  1  0.69540800  0.88405400  0.48621900  1
  C  C13  1  0.88405400  0.48621900  0.69540800  1
  C  C14  1  0.48621900  0.69540800  0.88405400  1
  C  C15  1  0.26276600  0.91542200  0.05776300  1
  C  C16  1  0.61797800  0.81231200  0.00016500  1
  C  C17  1  0.44802800  0.58604400  0.23605600  1
  C  C18  1  0.91542200  0.05776300  0.26276600  1
  C  C19  1  0.58604400  0.23605600  0.44802800  1
  C  C20  1  0.98844600  0.38224300  0.19621800  1
  C  C21  1  0.23605600  0.44802800  0.58604400  1
  C  C22  1  0.93842800  0.73732600  0.08374400  1
  C  C23  1  0.19621800  0.98844600  0.38224300  1
  C  C24  1  0.81231200  0.00016500  0.61797800  1
  C  C25  1  0.05776300  0.26276600  0.91542200  1
  C  C26  1  0.76224000  0.55904400  0.41303200  1
  C  C27  1  0.00016500  0.61797800  0.81231200  1
  C  C28  1  0.41303200  0.76224000  0.55904400  1
  C  C29  1  0.08374400  0.93842800  0.73732600  1
  C  C30  1  0.55904400  0.41303200  0.76224000  1
  C  C31  1  0.38224300  0.19621800  0.98844600  1
  C  C32  1  0.73732600  0.08374400  0.93842800  1
  C  C33  1  0.51371000  0.30424800  0.11677700  1
  C  C34  1  0.11677700  0.51371000  0.30424800  1
  C  C35  1  0.30424800  0.11677700  0.51371000  1
