# generated using pymatgen
data_Cu7Ni5C7
_symmetry_space_group_name_H-M   'P 1'
_cell_length_a   5.77351800
_cell_length_b   5.86359620
_cell_length_c   6.17363151
_cell_angle_alpha   100.26414255
_cell_angle_beta   98.18051142
_cell_angle_gamma   98.08076472
_symmetry_Int_Tables_number   1
_chemical_formula_structural   Cu7Ni5C7
_chemical_formula_sum   'Cu7 Ni5 C7'
_cell_volume   200.58671195
_cell_formula_units_Z   1
loop_
 _symmetry_equiv_pos_site_id
 _symmetry_equiv_pos_as_xyz
  1  'x, y, z'
loop_
 _atom_site_type_symbol
 _atom_site_label
 _atom_site_symmetry_multiplicity
 _atom_site_fract_x
 _atom_site_fract_y
 _atom_site_fract_z
 _atom_site_occupancy
  C  C0  1  0.59263900  0.32495400  0.14114800  1
  C  C1  1  0.13376500  0.58976800  0.32095900  1
  C  C2  1  0.66390300  0.85152600  0.37664300  1
  C  C3  1  0.29944300  0.14540100  0.62714300  1
  C  C4  1  0.84908700  0.39474900  0.66263500  1
  C  C5  1  0.38125900  0.69163600  0.85902600  1
  C  C6  1  0.02183600  0.99325200  0.98611500  1
  Ni  Ni7  1  0.33499300  0.05773600  0.93621200  1
  Ni  Ni8  1  0.95037300  0.10117200  0.71077400  1
  Ni  Ni9  1  0.59118900  0.42415000  0.79795200  1
  Ni  Ni10  1  0.02749900  0.68340500  0.89092600  1
  Ni  Ni11  1  0.17517400  0.43631600  0.59914500  1
  Cu  Cu12  1  0.58889900  0.17965800  0.41960200  1
  Cu  Cu13  1  0.80962200  0.59767900  0.44292500  1
  Cu  Cu14  1  0.43633600  0.83068100  0.58627900  1
  Cu  Cu15  1  0.94404300  0.28676600  0.12850500  1
  Cu  Cu16  1  0.39151700  0.57935700  0.15436400  1
  Cu  Cu17  1  0.11409400  0.96021800  0.31472600  1
  Cu  Cu18  1  0.69432800  0.87157700  0.04492200  1
