# generated using pymatgen
data_Cu10Ni4C25
_symmetry_space_group_name_H-M   'P 1'
_cell_length_a   7.62406692
_cell_length_b   7.62406692
_cell_length_c   17.46807466
_cell_angle_alpha   84.22615934
_cell_angle_beta   84.22615934
_cell_angle_gamma   99.52113780
_symmetry_Int_Tables_number   1
_chemical_formula_structural   Cu10Ni4C25
_chemical_formula_sum   'Cu20 Ni8 C50'
_cell_volume   989.15153407
_cell_formula_units_Z   2
loop_
 _symmetry_equiv_pos_site_id
 _symmetry_equiv_pos_as_xyz
  1  'x, y, z'
loop_
 _atom_site_type_symbol
 _atom_site_label
 _atom_site_symmetry_multiplicity
 _atom_site_fract_x
 _atom_site_fract_y
 _atom_site_fract_z
 _atom_site_occupancy
  C  C0  1  0.92356100  0.07643900  0.75000000  1
  C  C1  1  0.07643900  0.92356100  0.25000000  1
  C  C2  1  0.79121400  0.54662300  0.43128700  1
  C  C3  1  0.45337700  0.20878600  0.06871300  1
  C  C4  1  0.20878600  0.45337700  0.56871300  1
  C  C5  1  0.54662300  0.79121400  0.93128700  1
  C  C6  1  0.71025500  0.28974500  0.25000000  1
  C  C7  1  0.28974500  0.71025500  0.75000000  1
  C  C8  1  0.00000000  0.00000000  0.00000000  1
  C  C9  1  0.00000000  0.00000000  0.50000000  1
  Ni  Ni10  1  0.36524900  0.65251000  0.13551000  1
  Ni  Ni11  1  0.34749000  0.63475200  0.36449000  1
  Ni  Ni12  1  0.63475200  0.34749000  0.86449000  1
  Ni  Ni13  1  0.65251000  0.36524800  0.63551000  1
  Ni  Ni14  1  0.23404500  0.36028400  0.26317500  1
  Ni  Ni15  1  0.63971600  0.76595500  0.23682500  1
  Ni  Ni16  1  0.76595500  0.63971600  0.73682500  1
  Ni  Ni17  1  0.36028400  0.23404500  0.76317500  1
  Cu  Cu18  1  0.81514000  0.13453600  0.59243900  1
  Cu  Cu19  1  0.86546400  0.18486000  0.90756100  1
  Cu  Cu20  1  0.18486000  0.86546400  0.40756100  1
  Cu  Cu21  1  0.13453600  0.81514000  0.09243900  1
  Cu  Cu22  1  0.02844600  0.25870600  0.40109100  1
  Cu  Cu23  1  0.74129400  0.97155400  0.09890900  1
  Cu  Cu24  1  0.97155400  0.74129400  0.59890900  1
  Cu  Cu25  1  0.25870600  0.02844600  0.90109100  1
  Cu  Cu26  1  0.73244600  0.97830700  0.42924100  1
  Cu  Cu27  1  0.02169300  0.26755400  0.07075900  1
  Cu  Cu28  1  0.26755400  0.02169300  0.57075900  1
  Cu  Cu29  1  0.97830700  0.73244600  0.92924100  1
  Cu  Cu30  1  0.44594000  0.10359700  0.42491700  1
  Cu  Cu31  1  0.89640300  0.55406000  0.07508300  1
  Cu  Cu32  1  0.55406000  0.89640300  0.57508300  1
  Cu  Cu33  1  0.10359700  0.44594000  0.92491700  1
  Cu  Cu34  1  0.57287800  0.19937400  0.47673400  1
  Cu  Cu35  1  0.80062600  0.42712200  0.02326600  1
  Cu  Cu36  1  0.42712200  0.80062600  0.52326600  1
  Cu  Cu37  1  0.19937400  0.57287800  0.97673400  1
  C  C38  1  0.79660700  0.01007500  0.57513200  1
  C  C39  1  0.98992500  0.20339300  0.92486800  1
  C  C40  1  0.20339300  0.98992500  0.42486800  1
  C  C41  1  0.01007500  0.79660700  0.07513200  1
  C  C42  1  0.00905700  0.25102800  0.45935300  1
  C  C43  1  0.74897200  0.99094300  0.04064700  1
  C  C44  1  0.99094300  0.74897200  0.54064700  1
  C  C45  1  0.25102800  0.00905700  0.95935300  1
  C  C46  1  0.83651700  0.91485500  0.42566600  1
  C  C47  1  0.08514500  0.16348300  0.07433400  1
  C  C48  1  0.16348300  0.08514500  0.57433400  1
  C  C49  1  0.91485500  0.83651700  0.92566600  1
  C  C50  1  0.53476200  0.21888200  0.70424600  1
  C  C51  1  0.78111800  0.46523800  0.79575400  1
  C  C52  1  0.46523800  0.78111800  0.29575400  1
  C  C53  1  0.21888200  0.53476200  0.20424600  1
  C  C54  1  0.64866300  0.55216800  0.67209200  1
  C  C55  1  0.44783200  0.35133700  0.82790800  1
  C  C56  1  0.35133700  0.44783200  0.32790800  1
  C  C57  1  0.55216800  0.64866300  0.17209200  1
  C  C58  1  0.56001900  0.37228500  0.56416800  1
  C  C59  1  0.62771500  0.43998100  0.93583200  1
  C  C60  1  0.43998100  0.62771500  0.43583200  1
  C  C61  1  0.37228500  0.56001900  0.06416800  1
  C  C62  1  0.83820100  0.31918400  0.63060700  1
  C  C63  1  0.68081600  0.16179900  0.86939300  1
  C  C64  1  0.16179900  0.68081600  0.36939300  1
  C  C65  1  0.31918400  0.83820100  0.13060700  1
  C  C66  1  0.04687700  0.28477300  0.30090800  1
  C  C67  1  0.71522700  0.95312300  0.19909200  1
  C  C68  1  0.95312300  0.71522700  0.69909200  1
  C  C69  1  0.28477300  0.04687700  0.80090800  1
  C  C70  1  0.75882200  0.65583000  0.27519400  1
  C  C71  1  0.34417000  0.24117800  0.22480600  1
  C  C72  1  0.24117800  0.34417000  0.72480600  1
  C  C73  1  0.65583000  0.75882200  0.77519400  1
  C  C74  1  0.57530600  0.14529100  0.42800300  1
  C  C75  1  0.85470900  0.42469400  0.07199700  1
  C  C76  1  0.42469400  0.85470900  0.57199700  1
  C  C77  1  0.14529100  0.57530600  0.92800300  1
