# generated using pymatgen
data_CuNi5C3
_symmetry_space_group_name_H-M   'P 1'
_cell_length_a   8.35185800
_cell_length_b   10.76391000
_cell_length_c   13.27520500
_cell_angle_alpha   90.00000000
_cell_angle_beta   90.00000000
_cell_angle_gamma   90.00000000
_symmetry_Int_Tables_number   1
_chemical_formula_structural   CuNi5C3
_chemical_formula_sum   'Cu4 Ni20 C12'
_cell_volume   1193.42297936
_cell_formula_units_Z   4
loop_
 _symmetry_equiv_pos_site_id
 _symmetry_equiv_pos_as_xyz
  1  'x, y, z'
loop_
 _atom_site_type_symbol
 _atom_site_label
 _atom_site_symmetry_multiplicity
 _atom_site_fract_x
 _atom_site_fract_y
 _atom_site_fract_z
 _atom_site_occupancy
  C  C0  1  0.13854000  0.48698800  0.35393900  1
  C  C1  1  0.36146000  0.01301200  0.85393900  1
  C  C2  1  0.86146000  0.98698800  0.64606100  1
  C  C3  1  0.63854000  0.51301200  0.14606100  1
  C  C4  1  0.86146000  0.51301200  0.64606100  1
  C  C5  1  0.63854000  0.98698800  0.14606100  1
  C  C6  1  0.13854000  0.01301200  0.35393900  1
  C  C7  1  0.36146000  0.48698800  0.85393900  1
  C  C8  1  0.22562400  0.75000000  0.10324100  1
  C  C9  1  0.27437600  0.75000000  0.60324100  1
  C  C10  1  0.77437600  0.25000000  0.89675900  1
  C  C11  1  0.72562400  0.25000000  0.39675900  1
  Ni  Ni12  1  0.89609300  0.75000000  0.19753300  1
  Ni  Ni13  1  0.60390700  0.75000000  0.69753300  1
  Ni  Ni14  1  0.10390700  0.25000000  0.80246700  1
  Ni  Ni15  1  0.39609300  0.25000000  0.30246700  1
  Ni  Ni16  1  0.37698600  0.75000000  0.27815100  1
  Ni  Ni17  1  0.12301400  0.75000000  0.77815100  1
  Ni  Ni18  1  0.62301400  0.25000000  0.72184900  1
  Ni  Ni19  1  0.87698600  0.25000000  0.22184900  1
  Ni  Ni20  1  0.48410000  0.75000000  0.98620900  1
  Ni  Ni21  1  0.01590000  0.75000000  0.48620900  1
  Ni  Ni22  1  0.51590000  0.25000000  0.01379100  1
  Ni  Ni23  1  0.98410000  0.25000000  0.51379100  1
  Ni  Ni24  1  0.20116400  0.50270200  0.09653400  1
  Ni  Ni25  1  0.29883600  0.99729800  0.59653400  1
  Ni  Ni26  1  0.79883600  0.00270200  0.90346600  1
  Ni  Ni27  1  0.70116400  0.49729800  0.40346600  1
  Ni  Ni28  1  0.79883600  0.49729800  0.90346600  1
  Ni  Ni29  1  0.70116400  0.00270200  0.40346600  1
  Ni  Ni30  1  0.20116400  0.99729800  0.09653400  1
  Ni  Ni31  1  0.29883600  0.50270200  0.59653400  1
  Cu  Cu32  1  0.00051800  0.75000000  0.02466300  1
  Cu  Cu33  1  0.49948200  0.75000000  0.52466300  1
  Cu  Cu34  1  0.99948200  0.25000000  0.97533700  1
  Cu  Cu35  1  0.50051800  0.25000000  0.47533700  1
