# generated using pymatgen
data_Cu4Ni2C
_symmetry_space_group_name_H-M   'P 1'
_cell_length_a   8.62242100
_cell_length_b   15.41216500
_cell_length_c   20.78463800
_cell_angle_alpha   90.00000000
_cell_angle_beta   90.00000000
_cell_angle_gamma   90.00000000
_symmetry_Int_Tables_number   1
_chemical_formula_structural   Cu4Ni2C
_chemical_formula_sum   'Cu64 Ni32 C16'
_cell_volume   2762.07418428
_cell_formula_units_Z   16
loop_
 _symmetry_equiv_pos_site_id
 _symmetry_equiv_pos_as_xyz
  1  'x, y, z'
loop_
 _atom_site_type_symbol
 _atom_site_label
 _atom_site_symmetry_multiplicity
 _atom_site_fract_x
 _atom_site_fract_y
 _atom_site_fract_z
 _atom_site_occupancy
  C  C0  1  0.26583700  0.51955900  0.94970300  1
  C  C1  1  0.76583700  0.98044100  0.55029700  1
  C  C2  1  0.73416300  0.48044100  0.44970300  1
  C  C3  1  0.23416300  0.01955900  0.05029700  1
  C  C4  1  0.73416300  0.48044100  0.05029700  1
  C  C5  1  0.23416300  0.01955900  0.44970300  1
  C  C6  1  0.26583700  0.51955900  0.55029700  1
  C  C7  1  0.76583700  0.98044100  0.94970300  1
  C  C8  1  0.65221400  0.78415500  0.25000000  1
  C  C9  1  0.15221400  0.71584500  0.25000000  1
  C  C10  1  0.34778600  0.21584500  0.75000000  1
  C  C11  1  0.84778600  0.28415500  0.75000000  1
  C  C12  1  0.34382300  0.28251300  0.25000000  1
  C  C13  1  0.84382300  0.21748700  0.25000000  1
  C  C14  1  0.65617700  0.71748700  0.75000000  1
  C  C15  1  0.15617700  0.78251300  0.75000000  1
  Ni  Ni16  1  0.56127200  0.08081600  0.25000000  1
  Ni  Ni17  1  0.06127200  0.41918400  0.25000000  1
  Ni  Ni18  1  0.43872800  0.91918400  0.75000000  1
  Ni  Ni19  1  0.93872800  0.58081600  0.75000000  1
  Ni  Ni20  1  0.86055500  0.64495700  0.25000000  1
  Ni  Ni21  1  0.36055500  0.85504300  0.25000000  1
  Ni  Ni22  1  0.13944500  0.35504300  0.75000000  1
  Ni  Ni23  1  0.63944500  0.14495700  0.75000000  1
  Ni  Ni24  1  0.48976600  0.65226900  0.08980200  1
  Ni  Ni25  1  0.98976600  0.84773100  0.41019800  1
  Ni  Ni26  1  0.51023400  0.34773100  0.58980200  1
  Ni  Ni27  1  0.01023400  0.15226900  0.91019800  1
  Ni  Ni28  1  0.51023400  0.34773100  0.91019800  1
  Ni  Ni29  1  0.01023400  0.15226900  0.58980200  1
  Ni  Ni30  1  0.48976600  0.65226900  0.41019800  1
  Ni  Ni31  1  0.98976600  0.84773100  0.08980200  1
  Ni  Ni32  1  0.42255600  0.57709100  0.25000000  1
  Ni  Ni33  1  0.92255600  0.92290900  0.25000000  1
  Ni  Ni34  1  0.57744400  0.42290900  0.75000000  1
  Ni  Ni35  1  0.07744400  0.07709100  0.75000000  1
  Ni  Ni36  1  0.49515300  0.16692200  0.10070500  1
  Ni  Ni37  1  0.99515300  0.33307800  0.39929500  1
  Ni  Ni38  1  0.50484700  0.83307800  0.60070500  1
  Ni  Ni39  1  0.00484700  0.66692200  0.89929500  1
  Ni  Ni40  1  0.50484700  0.83307800  0.89929500  1
  Ni  Ni41  1  0.00484700  0.66692200  0.60070500  1
  Ni  Ni42  1  0.49515300  0.16692200  0.39929500  1
  Ni  Ni43  1  0.99515300  0.33307800  0.10070500  1
  Ni  Ni44  1  0.13278400  0.14130300  0.25000000  1
  Ni  Ni45  1  0.63278400  0.35869700  0.25000000  1
  Ni  Ni46  1  0.86721600  0.85869700  0.75000000  1
  Ni  Ni47  1  0.36721600  0.64130300  0.75000000  1
  Cu  Cu48  1  0.19552400  0.36806300  0.31558200  1
  Cu  Cu49  1  0.69552400  0.13193700  0.18441800  1
  Cu  Cu50  1  0.80447600  0.63193700  0.81558200  1
  Cu  Cu51  1  0.30447600  0.86806300  0.68441800  1
  Cu  Cu52  1  0.80447600  0.63193700  0.68441800  1
  Cu  Cu53  1  0.30447600  0.86806300  0.81558200  1
  Cu  Cu54  1  0.19552400  0.36806300  0.18441800  1
  Cu  Cu55  1  0.69552400  0.13193700  0.31558200  1
  Cu  Cu56  1  0.49259800  0.95639900  0.49361800  1
  Cu  Cu57  1  0.99259800  0.54360100  0.00638200  1
  Cu  Cu58  1  0.50740200  0.04360100  0.99361800  1
  Cu  Cu59  1  0.00740200  0.45639900  0.50638200  1
  Cu  Cu60  1  0.50740200  0.04360100  0.50638200  1
  Cu  Cu61  1  0.00740200  0.45639900  0.99361800  1
  Cu  Cu62  1  0.49259800  0.95639900  0.00638200  1
  Cu  Cu63  1  0.99259800  0.54360100  0.49361800  1
  Cu  Cu64  1  0.02805800  0.09117200  0.51370600  1
  Cu  Cu65  1  0.52805800  0.40882800  0.98629400  1
  Cu  Cu66  1  0.97194200  0.90882800  0.01370600  1
  Cu  Cu67  1  0.47194200  0.59117200  0.48629400  1
  Cu  Cu68  1  0.97194200  0.90882800  0.48629400  1
  Cu  Cu69  1  0.47194200  0.59117200  0.01370600  1
  Cu  Cu70  1  0.02805800  0.09117200  0.98629400  1
  Cu  Cu71  1  0.52805800  0.40882800  0.51370600  1
  Cu  Cu72  1  0.78811500  0.87554600  0.18476500  1
  Cu  Cu73  1  0.28811500  0.62445400  0.31523500  1
  Cu  Cu74  1  0.21188500  0.12445400  0.68476500  1
  Cu  Cu75  1  0.71188500  0.37554600  0.81523500  1
  Cu  Cu76  1  0.21188500  0.12445400  0.81523500  1
  Cu  Cu77  1  0.71188500  0.37554600  0.68476500  1
  Cu  Cu78  1  0.78811500  0.87554600  0.31523500  1
  Cu  Cu79  1  0.28811500  0.62445400  0.18476500  1
  Cu  Cu80  1  0.05974500  0.94370500  0.13622000  1
  Cu  Cu81  1  0.55974500  0.55629500  0.36378000  1
  Cu  Cu82  1  0.94025500  0.05629500  0.63622000  1
  Cu  Cu83  1  0.44025500  0.44370500  0.86378000  1
  Cu  Cu84  1  0.94025500  0.05629500  0.86378000  1
  Cu  Cu85  1  0.44025500  0.44370500  0.63622000  1
  Cu  Cu86  1  0.05974500  0.94370500  0.36378000  1
  Cu  Cu87  1  0.55974500  0.55629500  0.13622000  1
  Cu  Cu88  1  0.82403600  0.20422200  0.57884100  1
  Cu  Cu89  1  0.32403600  0.29577800  0.92115900  1
  Cu  Cu90  1  0.17596400  0.79577800  0.07884100  1
  Cu  Cu91  1  0.67596400  0.70422200  0.42115900  1
  Cu  Cu92  1  0.17596400  0.79577800  0.42115900  1
  Cu  Cu93  1  0.67596400  0.70422200  0.07884100  1
  Cu  Cu94  1  0.82403600  0.20422200  0.92115900  1
  Cu  Cu95  1  0.32403600  0.29577800  0.57884100  1
  Cu  Cu96  1  0.30305100  0.18573000  0.06145000  1
  Cu  Cu97  1  0.80305100  0.31427000  0.43855000  1
  Cu  Cu98  1  0.69694900  0.81427000  0.56145000  1
  Cu  Cu99  1  0.19694900  0.68573000  0.93855000  1
  Cu  Cu100  1  0.69694900  0.81427000  0.93855000  1
  Cu  Cu101  1  0.19694900  0.68573000  0.56145000  1
  Cu  Cu102  1  0.30305100  0.18573000  0.43855000  1
  Cu  Cu103  1  0.80305100  0.31427000  0.06145000  1
  Cu  Cu104  1  0.92832100  0.43649400  0.35756100  1
  Cu  Cu105  1  0.42832100  0.06350600  0.14243900  1
  Cu  Cu106  1  0.07167900  0.56350600  0.85756100  1
  Cu  Cu107  1  0.57167900  0.93649400  0.64243900  1
  Cu  Cu108  1  0.07167900  0.56350600  0.64243900  1
  Cu  Cu109  1  0.57167900  0.93649400  0.85756100  1
  Cu  Cu110  1  0.92832100  0.43649400  0.14243900  1
  Cu  Cu111  1  0.42832100  0.06350600  0.35756100  1
