# generated using pymatgen
data_Cu2Ni2C7
_symmetry_space_group_name_H-M   'P 1'
_cell_length_a   7.35064500
_cell_length_b   7.35064500
_cell_length_c   12.68643500
_cell_angle_alpha   90.00000000
_cell_angle_beta   90.00000000
_cell_angle_gamma   90.00000000
_symmetry_Int_Tables_number   1
_chemical_formula_structural   Cu2Ni2C7
_chemical_formula_sum   'Cu8 Ni8 C28'
_cell_volume   685.47322650
_cell_formula_units_Z   4
loop_
 _symmetry_equiv_pos_site_id
 _symmetry_equiv_pos_as_xyz
  1  'x, y, z'
loop_
 _atom_site_type_symbol
 _atom_site_label
 _atom_site_symmetry_multiplicity
 _atom_site_fract_x
 _atom_site_fract_y
 _atom_site_fract_z
 _atom_site_occupancy
  Ni  Ni0  1  0.13771800  0.62712800  0.13491600  1
  Ni  Ni1  1  0.12712800  0.36228200  0.88491600  1
  Ni  Ni2  1  0.37287200  0.86228200  0.36508400  1
  Ni  Ni3  1  0.36228200  0.12712800  0.11508400  1
  Ni  Ni4  1  0.63771800  0.87287200  0.61508400  1
  Ni  Ni5  1  0.62712800  0.13771800  0.86508400  1
  Ni  Ni6  1  0.87287200  0.63771800  0.38491600  1
  Ni  Ni7  1  0.86228200  0.37287200  0.63491600  1
  Cu  Cu8  1  0.10015400  0.87001800  0.59503200  1
  Cu  Cu9  1  0.12998200  0.89984600  0.90496800  1
  Cu  Cu10  1  0.37001800  0.39984600  0.34503200  1
  Cu  Cu11  1  0.39984600  0.37001800  0.65496800  1
  Cu  Cu12  1  0.60015400  0.62998200  0.15496800  1
  Cu  Cu13  1  0.62998200  0.60015400  0.84503200  1
  Cu  Cu14  1  0.87001800  0.10015400  0.40496800  1
  Cu  Cu15  1  0.89984600  0.12998200  0.09503200  1
  C  C16  1  0.06925800  0.90684800  0.41499400  1
  C  C17  1  0.08543700  0.32715600  0.07379400  1
  C  C18  1  0.09315200  0.93074200  0.08500600  1
  C  C19  1  0.15581500  0.63816800  0.95492300  1
  C  C20  1  0.17284400  0.58543700  0.32379400  1
  C  C21  1  0.13816800  0.34418500  0.70492300  1
  C  C22  1  0.15092700  0.84907300  0.75000000  1
  C  C23  1  0.34907300  0.34907300  0.50000000  1
  C  C24  1  0.36183200  0.84418500  0.54507700  1
  C  C25  1  0.32715600  0.08543700  0.92620600  1
  C  C26  1  0.34418500  0.13816800  0.29507700  1
  C  C27  1  0.40684800  0.43074200  0.16499400  1
  C  C28  1  0.41456300  0.82715600  0.17620600  1
  C  C29  1  0.43074200  0.40684800  0.83500600  1
  C  C30  1  0.56925800  0.59315200  0.33500600  1
  C  C31  1  0.58543700  0.17284400  0.67620600  1
  C  C32  1  0.59315200  0.56925800  0.66499400  1
  C  C33  1  0.65581500  0.86183200  0.79507700  1
  C  C34  1  0.67284400  0.91456300  0.42620600  1
  C  C35  1  0.63816800  0.15581500  0.04507700  1
  C  C36  1  0.65092700  0.65092700  0.00000000  1
  C  C37  1  0.84907300  0.15092700  0.25000000  1
  C  C38  1  0.86183200  0.65581500  0.20492300  1
  C  C39  1  0.82715600  0.41456300  0.82379400  1
  C  C40  1  0.84418500  0.36183200  0.45492300  1
  C  C41  1  0.90684800  0.06925800  0.58500600  1
  C  C42  1  0.91456300  0.67284400  0.57379400  1
  C  C43  1  0.93074200  0.09315200  0.91499400  1
