# generated using pymatgen
data_Cu3NiC8
_symmetry_space_group_name_H-M   'P 1'
_cell_length_a   7.83875100
_cell_length_b   12.08562700
_cell_length_c   12.34572100
_cell_angle_alpha   90.00000000
_cell_angle_beta   90.00000000
_cell_angle_gamma   90.00000000
_symmetry_Int_Tables_number   1
_chemical_formula_structural   Cu3NiC8
_chemical_formula_sum   'Cu24 Ni8 C64'
_cell_volume   1169.58694975
_cell_formula_units_Z   8
loop_
 _symmetry_equiv_pos_site_id
 _symmetry_equiv_pos_as_xyz
  1  'x, y, z'
loop_
 _atom_site_type_symbol
 _atom_site_label
 _atom_site_symmetry_multiplicity
 _atom_site_fract_x
 _atom_site_fract_y
 _atom_site_fract_z
 _atom_site_occupancy
  C  C0  1  0.31659000  0.30573500  0.87752700  1
  C  C1  1  0.18341000  0.69426500  0.37752700  1
  C  C2  1  0.81659000  0.19426500  0.12247300  1
  C  C3  1  0.68341000  0.80573500  0.62247300  1
  C  C4  1  0.68341000  0.69426500  0.12247300  1
  C  C5  1  0.81659000  0.30573500  0.62247300  1
  C  C6  1  0.18341000  0.80573500  0.87752700  1
  C  C7  1  0.31659000  0.19426500  0.37752700  1
  C  C8  1  0.47368100  0.36124500  0.04851400  1
  C  C9  1  0.02631900  0.63875500  0.54851400  1
  C  C10  1  0.97368100  0.13875500  0.95148600  1
  C  C11  1  0.52631900  0.86124500  0.45148600  1
  C  C12  1  0.52631900  0.63875500  0.95148600  1
  C  C13  1  0.97368100  0.36124500  0.45148600  1
  C  C14  1  0.02631900  0.86124500  0.04851400  1
  C  C15  1  0.47368100  0.13875500  0.54851400  1
  C  C16  1  0.38032400  0.23495400  0.03130400  1
  C  C17  1  0.11967600  0.76504600  0.53130400  1
  C  C18  1  0.88032400  0.26504600  0.96869600  1
  C  C19  1  0.61967600  0.73495400  0.46869600  1
  C  C20  1  0.61967600  0.76504600  0.96869600  1
  C  C21  1  0.88032400  0.23495400  0.46869600  1
  C  C22  1  0.11967600  0.73495400  0.03130400  1
  C  C23  1  0.38032400  0.26504600  0.53130400  1
  C  C24  1  0.27716200  0.32960300  0.10689500  1
  C  C25  1  0.22283800  0.67039700  0.60689500  1
  C  C26  1  0.77716200  0.17039700  0.89310500  1
  C  C27  1  0.72283800  0.82960300  0.39310500  1
  C  C28  1  0.72283800  0.67039700  0.89310500  1
  C  C29  1  0.77716200  0.32960300  0.39310500  1
  C  C30  1  0.22283800  0.82960300  0.10689500  1
  C  C31  1  0.27716200  0.17039700  0.60689500  1
  C  C32  1  0.12865300  0.56260800  0.81384300  1
  C  C33  1  0.37134700  0.43739200  0.31384300  1
  C  C34  1  0.62865300  0.93739200  0.18615700  1
  C  C35  1  0.87134700  0.06260800  0.68615700  1
  C  C36  1  0.87134700  0.43739200  0.18615700  1
  C  C37  1  0.62865300  0.56260800  0.68615700  1
  C  C38  1  0.37134700  0.06260800  0.81384300  1
  C  C39  1  0.12865300  0.93739200  0.31384300  1
  C  C40  1  0.13855300  0.42167600  0.77706200  1
  C  C41  1  0.36144700  0.57832400  0.27706200  1
  C  C42  1  0.63855300  0.07832400  0.22293800  1
  C  C43  1  0.86144700  0.92167600  0.72293800  1
  C  C44  1  0.86144700  0.57832400  0.22293800  1
  C  C45  1  0.63855300  0.42167600  0.72293800  1
  C  C46  1  0.36144700  0.92167600  0.77706200  1
  C  C47  1  0.13855300  0.07832400  0.27706200  1
  C  C48  1  0.23289600  0.46131800  0.92740100  1
  C  C49  1  0.26710400  0.53868200  0.42740100  1
  C  C50  1  0.73289600  0.03868200  0.07259900  1
  C  C51  1  0.76710400  0.96131800  0.57259900  1
  C  C52  1  0.76710400  0.53868200  0.07259900  1
  C  C53  1  0.73289600  0.46131800  0.57259900  1
  C  C54  1  0.26710400  0.96131800  0.92740100  1
  C  C55  1  0.23289600  0.03868200  0.42740100  1
  C  C56  1  0.26282500  0.55527000  0.02712700  1
  C  C57  1  0.23717500  0.44473000  0.52712700  1
  C  C58  1  0.76282500  0.94473000  0.97287300  1
  C  C59  1  0.73717500  0.05527000  0.47287300  1
  C  C60  1  0.73717500  0.44473000  0.97287300  1
  C  C61  1  0.76282500  0.55527000  0.47287300  1
  C  C62  1  0.23717500  0.05527000  0.02712700  1
  C  C63  1  0.26282500  0.94473000  0.52712700  1
  Ni  Ni64  1  0.04995900  0.22477200  0.71849600  1
  Ni  Ni65  1  0.45004100  0.77522800  0.21849600  1
  Ni  Ni66  1  0.54995900  0.27522800  0.28150400  1
  Ni  Ni67  1  0.95004100  0.72477200  0.78150400  1
  Ni  Ni68  1  0.95004100  0.77522800  0.28150400  1
  Ni  Ni69  1  0.54995900  0.22477200  0.78150400  1
  Ni  Ni70  1  0.45004100  0.72477200  0.71849600  1
  Ni  Ni71  1  0.04995900  0.27522800  0.21849600  1
  Cu  Cu72  1  0.27019200  0.35091800  0.94300300  1
  Cu  Cu73  1  0.22980800  0.64908200  0.44300300  1
  Cu  Cu74  1  0.77019200  0.14908200  0.05699700  1
  Cu  Cu75  1  0.72980800  0.85091800  0.55699700  1
  Cu  Cu76  1  0.72980800  0.64908200  0.05699700  1
  Cu  Cu77  1  0.77019200  0.35091800  0.55699700  1
  Cu  Cu78  1  0.22980800  0.85091800  0.94300300  1
  Cu  Cu79  1  0.27019200  0.14908200  0.44300300  1
  Cu  Cu80  1  0.35750800  0.31977800  0.03883100  1
  Cu  Cu81  1  0.14249200  0.68022200  0.53883100  1
  Cu  Cu82  1  0.85750800  0.18022200  0.96116900  1
  Cu  Cu83  1  0.64249200  0.81977800  0.46116900  1
  Cu  Cu84  1  0.64249200  0.68022200  0.96116900  1
  Cu  Cu85  1  0.85750800  0.31977800  0.46116900  1
  Cu  Cu86  1  0.14249200  0.81977800  0.03883100  1
  Cu  Cu87  1  0.35750800  0.18022200  0.53883100  1
  Cu  Cu88  1  0.17188100  0.48394000  0.82923600  1
  Cu  Cu89  1  0.32811900  0.51606000  0.32923600  1
  Cu  Cu90  1  0.67188100  0.01606000  0.17076400  1
  Cu  Cu91  1  0.82811900  0.98394000  0.67076400  1
  Cu  Cu92  1  0.82811900  0.51606000  0.17076400  1
  Cu  Cu93  1  0.67188100  0.48394000  0.67076400  1
  Cu  Cu94  1  0.32811900  0.98394000  0.82923600  1
  Cu  Cu95  1  0.17188100  0.01606000  0.32923600  1
