# generated using pymatgen
data_Cu16Ni2C21
_symmetry_space_group_name_H-M   'P 1'
_cell_length_a   10.65953200
_cell_length_b   14.62982800
_cell_length_c   16.15844700
_cell_angle_alpha   90.00000000
_cell_angle_beta   90.00000000
_cell_angle_gamma   90.00000000
_symmetry_Int_Tables_number   1
_chemical_formula_structural   Cu16Ni2C21
_chemical_formula_sum   'Cu64 Ni8 C84'
_cell_volume   2519.86326881
_cell_formula_units_Z   4
loop_
 _symmetry_equiv_pos_site_id
 _symmetry_equiv_pos_as_xyz
  1  'x, y, z'
loop_
 _atom_site_type_symbol
 _atom_site_label
 _atom_site_symmetry_multiplicity
 _atom_site_fract_x
 _atom_site_fract_y
 _atom_site_fract_z
 _atom_site_occupancy
  Ni  Ni0  1  0.86685500  0.59316500  0.79458400  1
  Ni  Ni1  1  0.63314500  0.90683500  0.29458400  1
  Ni  Ni2  1  0.36685500  0.40683500  0.20541600  1
  Ni  Ni3  1  0.13314500  0.09316500  0.70541600  1
  Ni  Ni4  1  0.13314500  0.40683500  0.20541600  1
  Ni  Ni5  1  0.36685500  0.09316500  0.70541600  1
  Ni  Ni6  1  0.63314500  0.59316500  0.79458400  1
  Ni  Ni7  1  0.86685500  0.90683500  0.29458400  1
  C  C8  1  0.75000000  0.41446100  0.90031500  1
  C  C9  1  0.75000000  0.08553900  0.40031500  1
  C  C10  1  0.25000000  0.58553900  0.09968500  1
  C  C11  1  0.25000000  0.91446100  0.59968500  1
  C  C12  1  0.88425200  0.47742400  0.74895100  1
  C  C13  1  0.61574800  0.02257600  0.24895100  1
  C  C14  1  0.38425200  0.52257600  0.25104900  1
  C  C15  1  0.11574800  0.97742400  0.75104900  1
  C  C16  1  0.11574800  0.52257600  0.25104900  1
  C  C17  1  0.38425200  0.97742400  0.75104900  1
  C  C18  1  0.61574800  0.47742400  0.74895100  1
  C  C19  1  0.88425200  0.02257600  0.24895100  1
  C  C20  1  0.75000000  0.65667600  0.73369800  1
  C  C21  1  0.75000000  0.84332400  0.23369800  1
  C  C22  1  0.25000000  0.34332400  0.26630200  1
  C  C23  1  0.25000000  0.15667600  0.76630200  1
  C  C24  1  0.75000000  0.52990800  0.60013800  1
  C  C25  1  0.75000000  0.97009200  0.10013800  1
  C  C26  1  0.25000000  0.47009200  0.39986200  1
  C  C27  1  0.25000000  0.02990800  0.89986200  1
  Cu  Cu28  1  0.75000000  0.29293700  0.84900200  1
  Cu  Cu29  1  0.75000000  0.20706300  0.34900200  1
  Cu  Cu30  1  0.25000000  0.70706300  0.15099800  1
  Cu  Cu31  1  0.25000000  0.79293700  0.65099800  1
  Cu  Cu32  1  0.87864200  0.37916600  0.97661900  1
  Cu  Cu33  1  0.62135800  0.12083400  0.47661900  1
  Cu  Cu34  1  0.37864200  0.62083400  0.02338100  1
  Cu  Cu35  1  0.12135800  0.87916600  0.52338100  1
  Cu  Cu36  1  0.12135800  0.62083400  0.02338100  1
  Cu  Cu37  1  0.37864200  0.87916600  0.52338100  1
  Cu  Cu38  1  0.62135800  0.37916600  0.97661900  1
  Cu  Cu39  1  0.87864200  0.12083400  0.47661900  1
  Cu  Cu40  1  0.75000000  0.54129300  0.94107300  1
  Cu  Cu41  1  0.75000000  0.95870700  0.44107300  1
  Cu  Cu42  1  0.25000000  0.45870700  0.05892700  1
  Cu  Cu43  1  0.25000000  0.04129300  0.55892700  1
  Cu  Cu44  1  0.90218400  0.35643700  0.70707900  1
  Cu  Cu45  1  0.59781600  0.14356300  0.20707900  1
  Cu  Cu46  1  0.40218400  0.64356300  0.29292100  1
  Cu  Cu47  1  0.09781600  0.85643700  0.79292100  1
  Cu  Cu48  1  0.09781600  0.64356300  0.29292100  1
  Cu  Cu49  1  0.40218400  0.85643700  0.79292100  1
  Cu  Cu50  1  0.59781600  0.35643700  0.70707900  1
  Cu  Cu51  1  0.90218400  0.14356300  0.20707900  1
  Cu  Cu52  1  0.00983200  0.52134000  0.67384100  1
  Cu  Cu53  1  0.49016800  0.97866000  0.17384100  1
  Cu  Cu54  1  0.50983200  0.47866000  0.32615900  1
  Cu  Cu55  1  0.99016800  0.02134000  0.82615900  1
  Cu  Cu56  1  0.99016800  0.47866000  0.32615900  1
  Cu  Cu57  1  0.50983200  0.02134000  0.82615900  1
  Cu  Cu58  1  0.49016800  0.52134000  0.67384100  1
  Cu  Cu59  1  0.00983200  0.97866000  0.17384100  1
  Cu  Cu60  1  0.00896400  0.46827400  0.83378600  1
  Cu  Cu61  1  0.49103600  0.03172600  0.33378600  1
  Cu  Cu62  1  0.50896400  0.53172600  0.16621400  1
  Cu  Cu63  1  0.99103600  0.96827400  0.66621400  1
  Cu  Cu64  1  0.99103600  0.53172600  0.16621400  1
  Cu  Cu65  1  0.50896400  0.96827400  0.66621400  1
  Cu  Cu66  1  0.49103600  0.46827400  0.83378600  1
  Cu  Cu67  1  0.00896400  0.03172600  0.33378600  1
  Cu  Cu68  1  0.75000000  0.73963800  0.82640000  1
  Cu  Cu69  1  0.75000000  0.76036200  0.32640000  1
  Cu  Cu70  1  0.25000000  0.26036200  0.17360000  1
  Cu  Cu71  1  0.25000000  0.23963800  0.67360000  1
  Cu  Cu72  1  0.62205800  0.71689100  0.67320300  1
  Cu  Cu73  1  0.87794200  0.78310900  0.17320300  1
  Cu  Cu74  1  0.12205800  0.28310900  0.32679700  1
  Cu  Cu75  1  0.37794200  0.21689100  0.82679700  1
  Cu  Cu76  1  0.37794200  0.28310900  0.32679700  1
  Cu  Cu77  1  0.12205800  0.21689100  0.82679700  1
  Cu  Cu78  1  0.87794200  0.71689100  0.67320300  1
  Cu  Cu79  1  0.62205800  0.78310900  0.17320300  1
  Cu  Cu80  1  0.75000000  0.41244900  0.54812800  1
  Cu  Cu81  1  0.75000000  0.08755100  0.04812800  1
  Cu  Cu82  1  0.25000000  0.58755100  0.45187200  1
  Cu  Cu83  1  0.25000000  0.91244900  0.95187200  1
  Cu  Cu84  1  0.62736200  0.58150900  0.53075600  1
  Cu  Cu85  1  0.87263800  0.91849100  0.03075600  1
  Cu  Cu86  1  0.12736200  0.41849100  0.46924400  1
  Cu  Cu87  1  0.37263800  0.08150900  0.96924400  1
  Cu  Cu88  1  0.37263800  0.41849100  0.46924400  1
  Cu  Cu89  1  0.12736200  0.08150900  0.96924400  1
  Cu  Cu90  1  0.87263800  0.58150900  0.53075600  1
  Cu  Cu91  1  0.62736200  0.91849100  0.03075600  1
  C  C92  1  0.75000000  0.21960500  0.82238200  1
  C  C93  1  0.75000000  0.28039500  0.32238200  1
  C  C94  1  0.25000000  0.78039500  0.17761800  1
  C  C95  1  0.25000000  0.71960500  0.67761800  1
  C  C96  1  0.95571900  0.35854600  0.02371300  1
  C  C97  1  0.54428100  0.14145400  0.52371300  1
  C  C98  1  0.45571900  0.64145400  0.97628700  1
  C  C99  1  0.04428100  0.85854600  0.47628700  1
  C  C100  1  0.04428100  0.64145400  0.97628700  1
  C  C101  1  0.45571900  0.85854600  0.47628700  1
  C  C102  1  0.54428100  0.35854600  0.02371300  1
  C  C103  1  0.95571900  0.14145400  0.52371300  1
  C  C104  1  0.75000000  0.61321800  0.97036500  1
  C  C105  1  0.75000000  0.88678200  0.47036500  1
  C  C106  1  0.25000000  0.38678200  0.02963500  1
  C  C107  1  0.25000000  0.11321800  0.52963500  1
  C  C108  1  0.91865800  0.28373200  0.67986500  1
  C  C109  1  0.58134200  0.21626800  0.17986500  1
  C  C110  1  0.41865800  0.71626800  0.32013500  1
  C  C111  1  0.08134200  0.78373200  0.82013500  1
  C  C112  1  0.08134200  0.71626800  0.32013500  1
  C  C113  1  0.41865800  0.78373200  0.82013500  1
  C  C114  1  0.58134200  0.28373200  0.67986500  1
  C  C115  1  0.91865800  0.21626800  0.17986500  1
  C  C116  1  0.09816100  0.54426000  0.63678600  1
  C  C117  1  0.40183900  0.95574000  0.13678600  1
  C  C118  1  0.59816100  0.45574000  0.36321400  1
  C  C119  1  0.90183900  0.04426000  0.86321400  1
  C  C120  1  0.90183900  0.45574000  0.36321400  1
  C  C121  1  0.59816100  0.04426000  0.86321400  1
  C  C122  1  0.40183900  0.54426000  0.63678600  1
  C  C123  1  0.09816100  0.95574000  0.13678600  1
  C  C124  1  0.09624800  0.46557800  0.87740000  1
  C  C125  1  0.40375200  0.03442200  0.37740000  1
  C  C126  1  0.59624800  0.53442200  0.12260000  1
  C  C127  1  0.90375200  0.96557800  0.62260000  1
  C  C128  1  0.90375200  0.53442200  0.12260000  1
  C  C129  1  0.59624800  0.96557800  0.62260000  1
  C  C130  1  0.40375200  0.46557800  0.87740000  1
  C  C131  1  0.09624800  0.03442200  0.37740000  1
  C  C132  1  0.75000000  0.79813000  0.87534100  1
  C  C133  1  0.75000000  0.70187000  0.37534100  1
  C  C134  1  0.25000000  0.20187000  0.12465900  1
  C  C135  1  0.25000000  0.29813000  0.62465900  1
  C  C136  1  0.54264800  0.75383800  0.63658400  1
  C  C137  1  0.95735200  0.74616200  0.13658400  1
  C  C138  1  0.04264800  0.24616200  0.36341600  1
  C  C139  1  0.45735200  0.25383800  0.86341600  1
  C  C140  1  0.45735200  0.24616200  0.36341600  1
  C  C141  1  0.04264800  0.25383800  0.86341600  1
  C  C142  1  0.95735200  0.75383800  0.63658400  1
  C  C143  1  0.54264800  0.74616200  0.13658400  1
  C  C144  1  0.75000000  0.34178600  0.51508100  1
  C  C145  1  0.75000000  0.15821400  0.01508100  1
  C  C146  1  0.25000000  0.65821400  0.48491900  1
  C  C147  1  0.25000000  0.84178600  0.98491900  1
  C  C148  1  0.55050100  0.61274600  0.48781500  1
  C  C149  1  0.94949900  0.88725400  0.98781500  1
  C  C150  1  0.05050100  0.38725400  0.51218500  1
  C  C151  1  0.44949900  0.11274600  0.01218500  1
  C  C152  1  0.44949900  0.38725400  0.51218500  1
  C  C153  1  0.05050100  0.11274600  0.01218500  1
  C  C154  1  0.94949900  0.61274600  0.48781500  1
  C  C155  1  0.55050100  0.88725400  0.98781500  1
