# generated using pymatgen
data_Cu4NiC26
_symmetry_space_group_name_H-M   'P 1'
_cell_length_a   2.97613400
_cell_length_b   8.96347100
_cell_length_c   24.95622800
_cell_angle_alpha   90.00000000
_cell_angle_beta   90.00000000
_cell_angle_gamma   90.00000000
_symmetry_Int_Tables_number   1
_chemical_formula_structural   Cu4NiC26
_chemical_formula_sum   'Cu8 Ni2 C52'
_cell_volume   665.74458667
_cell_formula_units_Z   2
loop_
 _symmetry_equiv_pos_site_id
 _symmetry_equiv_pos_as_xyz
  1  'x, y, z'
loop_
 _atom_site_type_symbol
 _atom_site_label
 _atom_site_symmetry_multiplicity
 _atom_site_fract_x
 _atom_site_fract_y
 _atom_site_fract_z
 _atom_site_occupancy
  C  C0  1  0.00000000  0.93373400  0.99368200  1
  C  C1  1  0.00000000  0.95550300  0.19016800  1
  C  C2  1  0.00000000  0.04449700  0.69016800  1
  C  C3  1  0.00000000  0.06626600  0.49368200  1
  C  C4  1  0.00000000  0.43481400  0.50959200  1
  C  C5  1  0.00000000  0.45923200  0.31297300  1
  C  C6  1  0.00000000  0.54076800  0.81297300  1
  C  C7  1  0.00000000  0.56518600  0.00959200  1
  Ni  Ni8  1  0.00000000  0.24407200  0.39751800  1
  Ni  Ni9  1  0.00000000  0.75592800  0.89751800  1
  Cu  Cu10  1  0.00000000  0.75088600  0.49989800  1
  Cu  Cu11  1  0.00000000  0.74685500  0.10293900  1
  Cu  Cu12  1  0.50000000  0.89564300  0.80282700  1
  Cu  Cu13  1  0.50000000  0.10435700  0.30282700  1
  Cu  Cu14  1  0.00000000  0.25314500  0.60293900  1
  Cu  Cu15  1  0.00000000  0.24911400  0.99989800  1
  Cu  Cu16  1  0.50000000  0.39300500  0.69610800  1
  Cu  Cu17  1  0.50000000  0.60699500  0.19610800  1
  C  C18  1  0.00000000  0.76789500  0.30990500  1
  C  C19  1  0.50000000  0.89874000  0.58676200  1
  C  C20  1  0.50000000  0.10126000  0.08676200  1
  C  C21  1  0.00000000  0.23210500  0.80990500  1
  C  C22  1  0.00000000  0.26654600  0.18893000  1
  C  C23  1  0.50000000  0.39735600  0.91379700  1
  C  C24  1  0.50000000  0.60264400  0.41379700  1
  C  C25  1  0.00000000  0.73345400  0.68893000  1
  C  C26  1  0.00000000  0.75126100  0.42427500  1
  C  C27  1  0.00000000  0.75163300  0.57657800  1
  C  C28  1  0.50000000  0.80936600  0.94190700  1
  C  C29  1  0.50000000  0.79753700  0.16011500  1
  C  C30  1  0.50000000  0.86745900  0.66517100  1
  C  C31  1  0.00000000  0.83977400  0.75659200  1
  C  C32  1  0.50000000  0.90143400  0.50518000  1
  C  C33  1  0.50000000  0.90179200  0.28476400  1
  C  C34  1  0.00000000  0.93743200  0.85410900  1
  C  C35  1  0.00000000  0.95114100  0.08625100  1
  C  C36  1  0.00000000  0.04885900  0.58625100  1
  C  C37  1  0.00000000  0.06256800  0.35410900  1
  C  C38  1  0.50000000  0.09820800  0.78476400  1
  C  C39  1  0.50000000  0.09856600  0.00518000  1
  C  C40  1  0.00000000  0.16022600  0.25659200  1
  C  C41  1  0.50000000  0.13254100  0.16517100  1
  C  C42  1  0.50000000  0.20246300  0.66011500  1
  C  C43  1  0.50000000  0.19063400  0.44190700  1
  C  C44  1  0.00000000  0.24836700  0.07657800  1
  C  C45  1  0.00000000  0.24873900  0.92427500  1
  C  C46  1  0.50000000  0.30804500  0.55729800  1
  C  C47  1  0.50000000  0.29599300  0.34022400  1
  C  C48  1  0.50000000  0.36417500  0.83516000  1
  C  C49  1  0.00000000  0.34213500  0.74298200  1
  C  C50  1  0.50000000  0.39915900  0.99549200  1
  C  C51  1  0.50000000  0.40289700  0.21179400  1
  C  C52  1  0.00000000  0.43192500  0.64373300  1
  C  C53  1  0.00000000  0.45352800  0.41327400  1
  C  C54  1  0.00000000  0.54647200  0.91327400  1
  C  C55  1  0.00000000  0.56807500  0.14373300  1
  C  C56  1  0.50000000  0.59710300  0.71179400  1
  C  C57  1  0.50000000  0.60084100  0.49549200  1
  C  C58  1  0.00000000  0.65786500  0.24298200  1
  C  C59  1  0.50000000  0.63582500  0.33516000  1
  C  C60  1  0.50000000  0.70400700  0.84022400  1
  C  C61  1  0.50000000  0.69195500  0.05729800  1
