# generated using pymatgen
data_CuNi2C5
_symmetry_space_group_name_H-M   'P 1'
_cell_length_a   8.78230800
_cell_length_b   10.57598600
_cell_length_c   14.37669500
_cell_angle_alpha   90.00000000
_cell_angle_beta   90.00000000
_cell_angle_gamma   90.00000000
_symmetry_Int_Tables_number   1
_chemical_formula_structural   CuNi2C5
_chemical_formula_sum   'Cu16 Ni32 C80'
_cell_volume   1335.32995206
_cell_formula_units_Z   16
loop_
 _symmetry_equiv_pos_site_id
 _symmetry_equiv_pos_as_xyz
  1  'x, y, z'
loop_
 _atom_site_type_symbol
 _atom_site_label
 _atom_site_symmetry_multiplicity
 _atom_site_fract_x
 _atom_site_fract_y
 _atom_site_fract_z
 _atom_site_occupancy
  C  C0  1  0.41819500  0.52839800  0.18848600  1
  C  C1  1  0.91819500  0.97160200  0.81151400  1
  C  C2  1  0.58180500  0.02839800  0.31151400  1
  C  C3  1  0.08180500  0.47160200  0.68848600  1
  C  C4  1  0.58180500  0.47160200  0.81151400  1
  C  C5  1  0.08180500  0.02839800  0.18848600  1
  C  C6  1  0.41819500  0.97160200  0.68848600  1
  C  C7  1  0.91819500  0.52839800  0.31151400  1
  C  C8  1  0.26502600  0.47440100  0.43007400  1
  C  C9  1  0.76502600  0.02559900  0.56992600  1
  C  C10  1  0.73497400  0.97440100  0.06992600  1
  C  C11  1  0.23497400  0.52559900  0.93007400  1
  C  C12  1  0.73497400  0.52559900  0.56992600  1
  C  C13  1  0.23497400  0.97440100  0.43007400  1
  C  C14  1  0.26502600  0.02559900  0.93007400  1
  C  C15  1  0.76502600  0.47440100  0.06992600  1
  Ni  Ni16  1  0.07988600  0.26411400  0.33702900  1
  Ni  Ni17  1  0.57988600  0.23588600  0.66297100  1
  Ni  Ni18  1  0.92011400  0.76411400  0.16297100  1
  Ni  Ni19  1  0.42011400  0.73588600  0.83702900  1
  Ni  Ni20  1  0.92011400  0.73588600  0.66297100  1
  Ni  Ni21  1  0.42011400  0.76411400  0.33702900  1
  Ni  Ni22  1  0.07988600  0.23588600  0.83702900  1
  Ni  Ni23  1  0.57988600  0.26411400  0.16297100  1
  Ni  Ni24  1  0.90087700  0.10688500  0.38556800  1
  Ni  Ni25  1  0.40087700  0.39311500  0.61443200  1
  Ni  Ni26  1  0.09912300  0.60688500  0.11443200  1
  Ni  Ni27  1  0.59912300  0.89311500  0.88556800  1
  Ni  Ni28  1  0.09912300  0.89311500  0.61443200  1
  Ni  Ni29  1  0.59912300  0.60688500  0.38556800  1
  Ni  Ni30  1  0.90087700  0.39311500  0.88556800  1
  Ni  Ni31  1  0.40087700  0.10688500  0.11443200  1
  Ni  Ni32  1  0.82954800  0.25769700  0.26018400  1
  Ni  Ni33  1  0.32954800  0.24230300  0.73981600  1
  Ni  Ni34  1  0.17045200  0.75769700  0.23981600  1
  Ni  Ni35  1  0.67045200  0.74230300  0.76018400  1
  Ni  Ni36  1  0.17045200  0.74230300  0.73981600  1
  Ni  Ni37  1  0.67045200  0.75769700  0.26018400  1
  Ni  Ni38  1  0.82954800  0.24230300  0.76018400  1
  Ni  Ni39  1  0.32954800  0.25769700  0.23981600  1
  Ni  Ni40  1  0.95287800  0.28886100  0.48957300  1
  Ni  Ni41  1  0.45287800  0.21113900  0.51042700  1
  Ni  Ni42  1  0.04712200  0.78886100  0.01042700  1
  Ni  Ni43  1  0.54712200  0.71113900  0.98957300  1
  Ni  Ni44  1  0.04712200  0.71113900  0.51042700  1
  Ni  Ni45  1  0.54712200  0.78886100  0.48957300  1
  Ni  Ni46  1  0.95287800  0.21113900  0.98957300  1
  Ni  Ni47  1  0.45287800  0.28886100  0.01042700  1
  Cu  Cu48  1  0.93320300  0.91990300  0.41909500  1
  Cu  Cu49  1  0.43320300  0.58009700  0.58090500  1
  Cu  Cu50  1  0.06679700  0.41990300  0.08090500  1
  Cu  Cu51  1  0.56679700  0.08009700  0.91909500  1
  Cu  Cu52  1  0.06679700  0.08009700  0.58090500  1
  Cu  Cu53  1  0.56679700  0.41990300  0.41909500  1
  Cu  Cu54  1  0.93320300  0.58009700  0.91909500  1
  Cu  Cu55  1  0.43320300  0.91990300  0.08090500  1
  Cu  Cu56  1  0.84961900  0.29881400  0.60827900  1
  Cu  Cu57  1  0.34961900  0.20118600  0.39172100  1
  Cu  Cu58  1  0.15038100  0.79881400  0.89172100  1
  Cu  Cu59  1  0.65038100  0.70118600  0.10827900  1
  Cu  Cu60  1  0.15038100  0.70118600  0.39172100  1
  Cu  Cu61  1  0.65038100  0.79881400  0.60827900  1
  Cu  Cu62  1  0.84961900  0.20118600  0.10827900  1
  Cu  Cu63  1  0.34961900  0.29881400  0.89172100  1
  C  C64  1  0.97081600  0.31437400  0.26620500  1
  C  C65  1  0.47081600  0.18562600  0.73379500  1
  C  C66  1  0.02918400  0.81437400  0.23379500  1
  C  C67  1  0.52918400  0.68562600  0.76620500  1
  C  C68  1  0.02918400  0.68562600  0.73379500  1
  C  C69  1  0.52918400  0.81437400  0.26620500  1
  C  C70  1  0.97081600  0.18562600  0.76620500  1
  C  C71  1  0.47081600  0.31437400  0.23379500  1
  C  C72  1  0.23859800  0.29717300  0.31340200  1
  C  C73  1  0.73859800  0.20282700  0.68659800  1
  C  C74  1  0.76140200  0.79717300  0.18659800  1
  C  C75  1  0.26140200  0.70282700  0.81340200  1
  C  C76  1  0.76140200  0.70282700  0.68659800  1
  C  C77  1  0.26140200  0.79717300  0.31340200  1
  C  C78  1  0.23859800  0.20282700  0.81340200  1
  C  C79  1  0.73859800  0.29717300  0.18659800  1
  C  C80  1  0.05668900  0.12707300  0.35015700  1
  C  C81  1  0.55668900  0.37292700  0.64984300  1
  C  C82  1  0.94331100  0.62707300  0.14984300  1
  C  C83  1  0.44331100  0.87292700  0.85015700  1
  C  C84  1  0.94331100  0.87292700  0.64984300  1
  C  C85  1  0.44331100  0.62707300  0.35015700  1
  C  C86  1  0.05668900  0.37292700  0.85015700  1
  C  C87  1  0.55668900  0.12707300  0.14984300  1
  C  C88  1  0.04893500  0.33937000  0.42527500  1
  C  C89  1  0.54893500  0.16063000  0.57472500  1
  C  C90  1  0.95106500  0.83937000  0.07472500  1
  C  C91  1  0.45106500  0.66063000  0.92527500  1
  C  C92  1  0.95106500  0.66063000  0.57472500  1
  C  C93  1  0.45106500  0.83937000  0.42527500  1
  C  C94  1  0.04893500  0.16063000  0.92527500  1
  C  C95  1  0.54893500  0.33937000  0.07472500  1
  C  C96  1  0.78722300  0.16158800  0.31851500  1
  C  C97  1  0.28722300  0.33841200  0.68148500  1
  C  C98  1  0.21277700  0.66158800  0.18148500  1
  C  C99  1  0.71277700  0.83841200  0.81851500  1
  C  C100  1  0.21277700  0.83841200  0.68148500  1
  C  C101  1  0.71277700  0.66158800  0.31851500  1
  C  C102  1  0.78722300  0.33841200  0.81851500  1
  C  C103  1  0.28722300  0.16158800  0.18148500  1
  C  C104  1  0.88650600  0.17269800  0.47865400  1
  C  C105  1  0.38650600  0.32730200  0.52134600  1
  C  C106  1  0.11349400  0.67269800  0.02134600  1
  C  C107  1  0.61349400  0.82730200  0.97865400  1
  C  C108  1  0.11349400  0.82730200  0.52134600  1
  C  C109  1  0.61349400  0.67269800  0.47865400  1
  C  C110  1  0.88650600  0.32730200  0.97865400  1
  C  C111  1  0.38650600  0.17269800  0.02134600  1
  C  C112  1  0.85166100  0.97637200  0.39981100  1
  C  C113  1  0.35166100  0.52362800  0.60018900  1
  C  C114  1  0.14833900  0.47637200  0.10018900  1
  C  C115  1  0.64833900  0.02362800  0.89981100  1
  C  C116  1  0.14833900  0.02362800  0.60018900  1
  C  C117  1  0.64833900  0.47637200  0.39981100  1
  C  C118  1  0.85166100  0.52362800  0.89981100  1
  C  C119  1  0.35166100  0.97637200  0.10018900  1
  C  C120  1  0.91857300  0.35509300  0.57190800  1
  C  C121  1  0.41857300  0.14490700  0.42809200  1
  C  C122  1  0.08142700  0.85509300  0.92809200  1
  C  C123  1  0.58142700  0.64490700  0.07190800  1
  C  C124  1  0.08142700  0.64490700  0.42809200  1
  C  C125  1  0.58142700  0.85509300  0.57190800  1
  C  C126  1  0.91857300  0.14490700  0.07190800  1
  C  C127  1  0.41857300  0.35509300  0.92809200  1
