# generated using pymatgen
data_Cu12NiC63
_symmetry_space_group_name_H-M   'P 1'
_cell_length_a   8.66837000
_cell_length_b   8.79565305
_cell_length_c   12.23361381
_cell_angle_alpha   90.22298481
_cell_angle_beta   90.00900632
_cell_angle_gamma   90.09081313
_symmetry_Int_Tables_number   1
_chemical_formula_structural   Cu12NiC63
_chemical_formula_sum   'Cu12 Ni1 C63'
_cell_volume   932.73109785
_cell_formula_units_Z   1
loop_
 _symmetry_equiv_pos_site_id
 _symmetry_equiv_pos_as_xyz
  1  'x, y, z'
loop_
 _atom_site_type_symbol
 _atom_site_label
 _atom_site_symmetry_multiplicity
 _atom_site_fract_x
 _atom_site_fract_y
 _atom_site_fract_z
 _atom_site_occupancy
  C  C0  1  0.21711000  0.72294300  0.18240600  1
  C  C1  1  0.21888200  0.77739200  0.81781900  1
  C  C2  1  0.28250700  0.22245000  0.31778600  1
  C  C3  1  0.28050100  0.27667200  0.68268000  1
  C  C4  1  0.71597900  0.72404300  0.31581200  1
  C  C5  1  0.71719100  0.78886200  0.68260600  1
  C  C6  1  0.78389700  0.22214200  0.18196700  1
  C  C7  1  0.78637500  0.27427900  0.82565500  1
  C  C8  1  0.24748100  0.95997700  0.61256000  1
  C  C9  1  0.24884900  0.54026200  0.38663100  1
  C  C10  1  0.25104800  0.04081900  0.11264200  1
  C  C11  1  0.25147800  0.45846300  0.88754100  1
  C  C12  1  0.74868500  0.54065100  0.11145600  1
  C  C13  1  0.74801400  0.96038100  0.88936000  1
  C  C14  1  0.75091900  0.03795600  0.38596500  1
  Ni  Ni15  1  0.75219400  0.46164200  0.61301600  1
  Cu  Cu16  1  0.04186500  0.24761300  0.49844900  1
  Cu  Cu17  1  0.46113900  0.74963800  0.00005800  1
  Cu  Cu18  1  0.53900400  0.25022600  0.00094600  1
  Cu  Cu19  1  0.96162400  0.75051400  0.49789900  1
  Cu  Cu20  1  0.10520300  0.39254900  0.14656600  1
  Cu  Cu21  1  0.10611900  0.10620700  0.85321400  1
  Cu  Cu22  1  0.39206300  0.60419500  0.64620800  1
  Cu  Cu23  1  0.39374600  0.89293700  0.35372600  1
  Cu  Cu24  1  0.60298500  0.10615300  0.64511200  1
  Cu  Cu25  1  0.60408900  0.39220700  0.34993200  1
  Cu  Cu26  1  0.89616400  0.60935000  0.85207900  1
  Cu  Cu27  1  0.89515300  0.89209400  0.14652200  1
  C  C28  1  0.05373000  0.63705500  0.43079500  1
  C  C29  1  0.05460100  0.85511100  0.57197200  1
  C  C30  1  0.07370400  0.89536900  0.15559300  1
  C  C31  1  0.07282900  0.60435500  0.84063300  1
  C  C32  1  0.14549200  0.16306100  0.58052000  1
  C  C33  1  0.14657000  0.33796200  0.42061700  1
  C  C34  1  0.15452000  0.43442800  0.03030600  1
  C  C35  1  0.15607200  0.06582600  0.96925300  1
  C  C36  1  0.16182700  0.23248100  0.17927200  1
  C  C37  1  0.16176500  0.26729900  0.82074800  1
  C  C38  1  0.17316000  0.51430600  0.22543900  1
  C  C39  1  0.17438800  0.98535100  0.77385600  1
  C  C40  1  0.32601300  0.01353000  0.27456200  1
  C  C41  1  0.32898700  0.48350500  0.72515000  1
  C  C42  1  0.34460200  0.76639700  0.68015500  1
  C  C43  1  0.33636100  0.73221800  0.32067800  1
  C  C44  1  0.34869800  0.56541800  0.52915500  1
  C  C45  1  0.34405900  0.93448200  0.47006000  1
  C  C46  1  0.35240400  0.83710200  0.07948300  1
  C  C47  1  0.35223400  0.66184900  0.92089400  1
  C  C48  1  0.42663400  0.10968500  0.65636500  1
  C  C49  1  0.42695400  0.39404000  0.34411600  1
  C  C50  1  0.44334400  0.14254800  0.07122400  1
  C  C51  1  0.44408000  0.35765900  0.92960800  1
  C  C52  1  0.55676300  0.64282300  0.07109700  1
  C  C53  1  0.55653300  0.85696000  0.92892100  1
  C  C54  1  0.57779600  0.60398800  0.65674200  1
  C  C55  1  0.57247300  0.89556200  0.34405400  1
  C  C56  1  0.64708500  0.33805400  0.08052000  1
  C  C57  1  0.64744200  0.16266000  0.92137400  1
  C  C58  1  0.65557700  0.07251200  0.52943000  1
  C  C59  1  0.65259900  0.43448200  0.47071200  1
  C  C60  1  0.66432200  0.23292100  0.32052000  1
  C  C61  1  0.66413600  0.27215900  0.68154700  1
  C  C62  1  0.67558300  0.51472900  0.27583800  1
  C  C63  1  0.67518400  0.99286700  0.72580200  1
  C  C64  1  0.82656500  0.01302000  0.22572800  1
  C  C65  1  0.82526400  0.48217000  0.77062200  1
  C  C66  1  0.83839100  0.73132500  0.17834900  1
  C  C67  1  0.83493700  0.76625700  0.81793300  1
  C  C68  1  0.84128900  0.56033500  0.96462400  1
  C  C69  1  0.84525200  0.93255000  0.03035000  1
  C  C70  1  0.85000300  0.66269500  0.58246400  1
  C  C71  1  0.84907300  0.83502300  0.42185600  1
  C  C72  1  0.92717200  0.10335200  0.84485900  1
  C  C73  1  0.92632700  0.39560900  0.15497900  1
  C  C74  1  0.93987300  0.14339400  0.43092100  1
  C  C75  1  0.94707000  0.36089600  0.57369300  1
