# generated using pymatgen
data_Cu(NiC3)2
_symmetry_space_group_name_H-M   'P 1'
_cell_length_a   6.52134855
_cell_length_b   6.52134855
_cell_length_c   5.77516337
_cell_angle_alpha   79.07611868
_cell_angle_beta   79.07611868
_cell_angle_gamma   26.14519053
_symmetry_Int_Tables_number   1
_chemical_formula_structural   Cu(NiC3)2
_chemical_formula_sum   'Cu1 Ni2 C6'
_cell_volume   106.15782327
_cell_formula_units_Z   1
loop_
 _symmetry_equiv_pos_site_id
 _symmetry_equiv_pos_as_xyz
  1  'x, y, z'
loop_
 _atom_site_type_symbol
 _atom_site_label
 _atom_site_symmetry_multiplicity
 _atom_site_fract_x
 _atom_site_fract_y
 _atom_site_fract_z
 _atom_site_occupancy
  Ni  Ni0  1  0.16789800  0.16789800  0.66522200  1
  Ni  Ni1  1  0.83210200  0.83210200  0.33477800  1
  Cu  Cu2  1  0.50000000  0.50000000  0.00000000  1
  C  C3  1  0.65984400  0.65984400  0.88649000  1
  C  C4  1  0.32267500  0.32267500  0.55870700  1
  C  C5  1  0.34015600  0.34015600  0.11351000  1
  C  C6  1  0.98757100  0.98757100  0.23139000  1
  C  C7  1  0.01242900  0.01242900  0.76861000  1
  C  C8  1  0.67732500  0.67732500  0.44129300  1
