# generated using pymatgen
data_Cu3NiC14
_symmetry_space_group_name_H-M   'P 1'
_cell_length_a   8.64600033
_cell_length_b   8.64600101
_cell_length_c   8.64600089
_cell_angle_alpha   60.34647765
_cell_angle_beta   60.34648002
_cell_angle_gamma   60.34647312
_symmetry_Int_Tables_number   1
_chemical_formula_structural   Cu3NiC14
_chemical_formula_sum   'Cu6 Ni2 C28'
_cell_volume   460.59752784
_cell_formula_units_Z   2
loop_
 _symmetry_equiv_pos_site_id
 _symmetry_equiv_pos_as_xyz
  1  'x, y, z'
loop_
 _atom_site_type_symbol
 _atom_site_label
 _atom_site_symmetry_multiplicity
 _atom_site_fract_x
 _atom_site_fract_y
 _atom_site_fract_z
 _atom_site_occupancy
  C  C0  1  0.14957300  0.14957300  0.14957300  1
  C  C1  1  0.35212700  0.35212700  0.35212700  1
  C  C2  1  0.64859100  0.64859100  0.64859100  1
  C  C3  1  0.85250900  0.85250900  0.85250900  1
  Ni  Ni4  1  0.99909000  0.99909000  0.99909000  1
  Ni  Ni5  1  0.49919100  0.49919100  0.49919100  1
  Cu  Cu6  1  0.75047300  0.45585200  0.04158100  1
  Cu  Cu7  1  0.25009000  0.54630200  0.95783300  1
  Cu  Cu8  1  0.54630200  0.95783300  0.25009000  1
  Cu  Cu9  1  0.95783300  0.25009000  0.54630200  1
  Cu  Cu10  1  0.04158100  0.75047300  0.45585200  1
  Cu  Cu11  1  0.45585200  0.04158100  0.75047300  1
  C  C12  1  0.11147800  0.31595400  0.50476700  1
  C  C13  1  0.31595400  0.50476700  0.11147800  1
  C  C14  1  0.05732400  0.91189800  0.25147400  1
  C  C15  1  0.50476700  0.11147800  0.31595400  1
  C  C16  1  0.01190500  0.81644400  0.60235300  1
  C  C17  1  0.23962100  0.59071000  0.42925500  1
  C  C18  1  0.25147400  0.05732400  0.91189800  1
  C  C19  1  0.42925500  0.23962100  0.59071000  1
  C  C20  1  0.18307900  0.39348700  0.99507900  1
  C  C21  1  0.59071000  0.42925500  0.23962100  1
  C  C22  1  0.09043400  0.74644100  0.94264200  1
  C  C23  1  0.39348700  0.99507900  0.18307900  1
  C  C24  1  0.60235300  0.01190500  0.81644400  1
  C  C25  1  0.91189800  0.25147400  0.05732400  1
  C  C26  1  0.40999100  0.56441100  0.76130400  1
  C  C27  1  0.81644400  0.60235300  0.01190500  1
  C  C28  1  0.56441100  0.76130400  0.40999100  1
  C  C29  1  0.74644100  0.94264200  0.09043400  1
  C  C30  1  0.76130400  0.40999100  0.56441100  1
  C  C31  1  0.99507900  0.18307900  0.39348700  1
  C  C32  1  0.49221900  0.88729300  0.68722600  1
  C  C33  1  0.94264200  0.09043400  0.74644100  1
  C  C34  1  0.68722600  0.49221900  0.88729300  1
  C  C35  1  0.88729300  0.68722600  0.49221900  1
