# generated using pymatgen
data_CuNi3C2
_symmetry_space_group_name_H-M   'P 1'
_cell_length_a   4.72532832
_cell_length_b   4.72532832
_cell_length_c   15.05490700
_cell_angle_alpha   90.00000000
_cell_angle_beta   90.00000000
_cell_angle_gamma   94.56432734
_symmetry_Int_Tables_number   1
_chemical_formula_structural   CuNi3C2
_chemical_formula_sum   'Cu5 Ni15 C10'
_cell_volume   335.09083666
_cell_formula_units_Z   5
loop_
 _symmetry_equiv_pos_site_id
 _symmetry_equiv_pos_as_xyz
  1  'x, y, z'
loop_
 _atom_site_type_symbol
 _atom_site_label
 _atom_site_symmetry_multiplicity
 _atom_site_fract_x
 _atom_site_fract_y
 _atom_site_fract_z
 _atom_site_occupancy
  C  C0  1  0.99939000  0.00061000  0.39995300  1
  C  C1  1  0.99939000  0.00061000  0.60004700  1
  C  C2  1  0.99764800  0.00235200  0.80022400  1
  C  C3  1  0.99764800  0.00235200  0.19977600  1
  C  C4  1  0.99310600  0.00689400  0.00000000  1
  C  C5  1  0.44967000  0.55033000  0.69968400  1
  C  C6  1  0.44967000  0.55033000  0.30031600  1
  C  C7  1  0.54361000  0.45639000  0.10054100  1
  C  C8  1  0.54361000  0.45639000  0.89945900  1
  C  C9  1  0.54824300  0.45175700  0.50000000  1
  Ni  Ni10  1  0.80104900  0.19895100  0.89969500  1
  Ni  Ni11  1  0.80104900  0.19895100  0.10030500  1
  Ni  Ni12  1  0.80513600  0.19486400  0.50000000  1
  Ni  Ni13  1  0.30501400  0.31083600  0.79963700  1
  Ni  Ni14  1  0.30771600  0.30889800  0.59992700  1
  Ni  Ni15  1  0.30771600  0.30889800  0.40007300  1
  Ni  Ni16  1  0.30501400  0.31083600  0.20036300  1
  Ni  Ni17  1  0.31028100  0.30419600  0.00000000  1
  Ni  Ni18  1  0.68916400  0.69498600  0.79963700  1
  Ni  Ni19  1  0.69110200  0.69228400  0.59992700  1
  Ni  Ni20  1  0.69110200  0.69228400  0.40007300  1
  Ni  Ni21  1  0.68916400  0.69498600  0.20036300  1
  Ni  Ni22  1  0.69580400  0.68971900  0.00000000  1
  Ni  Ni23  1  0.19313800  0.80686200  0.70019000  1
  Ni  Ni24  1  0.19313800  0.80686200  0.29981000  1
  Cu  Cu25  1  0.80033600  0.19966400  0.70013000  1
  Cu  Cu26  1  0.80033600  0.19966400  0.29987000  1
  Cu  Cu27  1  0.19810100  0.80189900  0.50000000  1
  Cu  Cu28  1  0.19682800  0.80317200  0.90048900  1
  Cu  Cu29  1  0.19682800  0.80317200  0.09951100  1
