# generated using pymatgen
data_Cu(NiC2)2
_symmetry_space_group_name_H-M   'P 1'
_cell_length_a   6.18119234
_cell_length_b   6.18119234
_cell_length_c   6.18119169
_cell_angle_alpha   59.60175848
_cell_angle_beta   59.60175848
_cell_angle_gamma   59.60175955
_symmetry_Int_Tables_number   1
_chemical_formula_structural   Cu(NiC2)2
_chemical_formula_sum   'Cu2 Ni4 C8'
_cell_volume   165.48278866
_cell_formula_units_Z   2
loop_
 _symmetry_equiv_pos_site_id
 _symmetry_equiv_pos_as_xyz
  1  'x, y, z'
loop_
 _atom_site_type_symbol
 _atom_site_label
 _atom_site_symmetry_multiplicity
 _atom_site_fract_x
 _atom_site_fract_y
 _atom_site_fract_z
 _atom_site_occupancy
  Ni  Ni0  1  0.37670900  0.87333700  0.37670900  1
  Ni  Ni1  1  0.74509300  0.74509300  0.74509300  1
  Ni  Ni2  1  0.37670900  0.37670900  0.87333700  1
  Ni  Ni3  1  0.87333700  0.37670900  0.37670900  1
  Cu  Cu4  1  0.37872300  0.37872300  0.37872300  1
  Cu  Cu5  1  0.00579400  0.00579400  0.00579400  1
  C  C6  1  0.15373100  0.60100200  0.60100200  1
  C  C7  1  0.60100200  0.60100200  0.15373100  1
  C  C8  1  0.13316800  0.13316800  0.13316800  1
  C  C9  1  0.13852300  0.13852300  0.61571600  1
  C  C10  1  0.13852300  0.61571600  0.13852300  1
  C  C11  1  0.61571600  0.13852300  0.13852300  1
  C  C12  1  0.60100200  0.15373100  0.60100200  1
  C  C13  1  0.61197800  0.61197800  0.61197800  1
