# generated using pymatgen
data_CuNi3C
_symmetry_space_group_name_H-M   'P 1'
_cell_length_a   7.07616600
_cell_length_b   11.60557800
_cell_length_c   13.27864500
_cell_angle_alpha   90.00000000
_cell_angle_beta   90.00000000
_cell_angle_gamma   90.00000000
_symmetry_Int_Tables_number   1
_chemical_formula_structural   CuNi3C
_chemical_formula_sum   'Cu16 Ni48 C16'
_cell_volume   1090.48211625
_cell_formula_units_Z   16
loop_
 _symmetry_equiv_pos_site_id
 _symmetry_equiv_pos_as_xyz
  1  'x, y, z'
loop_
 _atom_site_type_symbol
 _atom_site_label
 _atom_site_symmetry_multiplicity
 _atom_site_fract_x
 _atom_site_fract_y
 _atom_site_fract_z
 _atom_site_occupancy
  Ni  Ni0  1  0.50782700  0.45891900  0.39694100  1
  Ni  Ni1  1  0.00782700  0.04108100  0.10305900  1
  Ni  Ni2  1  0.49217300  0.95891900  0.60305900  1
  Ni  Ni3  1  0.99217300  0.54108100  0.89694100  1
  Ni  Ni4  1  0.49217300  0.54108100  0.60305900  1
  Ni  Ni5  1  0.99217300  0.95891900  0.89694100  1
  Ni  Ni6  1  0.50782700  0.04108100  0.39694100  1
  Ni  Ni7  1  0.00782700  0.45891900  0.10305900  1
  Ni  Ni8  1  0.73869700  0.45822200  0.42627000  1
  Ni  Ni9  1  0.23869700  0.04177800  0.07373000  1
  Ni  Ni10  1  0.26130300  0.95822200  0.57373000  1
  Ni  Ni11  1  0.76130300  0.54177800  0.92627000  1
  Ni  Ni12  1  0.26130300  0.54177800  0.57373000  1
  Ni  Ni13  1  0.76130300  0.95822200  0.92627000  1
  Ni  Ni14  1  0.73869700  0.04177800  0.42627000  1
  Ni  Ni15  1  0.23869700  0.45822200  0.07373000  1
  Ni  Ni16  1  0.66822600  0.45816800  0.30533900  1
  Ni  Ni17  1  0.16822600  0.04183200  0.19466100  1
  Ni  Ni18  1  0.33177400  0.95816800  0.69466100  1
  Ni  Ni19  1  0.83177400  0.54183200  0.80533900  1
  Ni  Ni20  1  0.33177400  0.54183200  0.69466100  1
  Ni  Ni21  1  0.83177400  0.95816800  0.80533900  1
  Ni  Ni22  1  0.66822600  0.04183200  0.30533900  1
  Ni  Ni23  1  0.16822600  0.45816800  0.19466100  1
  Ni  Ni24  1  0.10857900  0.17788700  0.81734700  1
  Ni  Ni25  1  0.60857900  0.32211300  0.68265300  1
  Ni  Ni26  1  0.89142100  0.67788700  0.18265300  1
  Ni  Ni27  1  0.39142100  0.82211300  0.31734700  1
  Ni  Ni28  1  0.89142100  0.82211300  0.18265300  1
  Ni  Ni29  1  0.39142100  0.67788700  0.31734700  1
  Ni  Ni30  1  0.10857900  0.32211300  0.81734700  1
  Ni  Ni31  1  0.60857900  0.17788700  0.68265300  1
  Ni  Ni32  1  0.96285300  0.25000000  0.74035900  1
  Ni  Ni33  1  0.46285300  0.25000000  0.75964100  1
  Ni  Ni34  1  0.03714700  0.75000000  0.25964100  1
  Ni  Ni35  1  0.53714700  0.75000000  0.24035900  1
  Ni  Ni36  1  0.66801700  0.25000000  0.09653700  1
  Ni  Ni37  1  0.16801700  0.25000000  0.40346300  1
  Ni  Ni38  1  0.33198300  0.75000000  0.90346300  1
  Ni  Ni39  1  0.83198300  0.75000000  0.59653700  1
  Ni  Ni40  1  0.52903500  0.32267500  0.01740900  1
  Ni  Ni41  1  0.02903500  0.17732500  0.48259100  1
  Ni  Ni42  1  0.47096500  0.82267500  0.98259100  1
  Ni  Ni43  1  0.97096500  0.67732500  0.51740900  1
  Ni  Ni44  1  0.47096500  0.67732500  0.98259100  1
  Ni  Ni45  1  0.97096500  0.82267500  0.51740900  1
  Ni  Ni46  1  0.52903500  0.17732500  0.01740900  1
  Ni  Ni47  1  0.02903500  0.32267500  0.48259100  1
  C  C48  1  0.63577500  0.25000000  0.37795400  1
  C  C49  1  0.13577500  0.25000000  0.12204600  1
  C  C50  1  0.36422500  0.75000000  0.62204600  1
  C  C51  1  0.86422500  0.75000000  0.87795400  1
  C  C52  1  0.82070900  0.25000000  0.91971000  1
  C  C53  1  0.32070900  0.25000000  0.58029000  1
  C  C54  1  0.17929100  0.75000000  0.08029000  1
  C  C55  1  0.67929100  0.75000000  0.41971000  1
  C  C56  1  0.65810700  0.53392800  0.12777300  1
  C  C57  1  0.15810700  0.96607200  0.37222700  1
  C  C58  1  0.34189300  0.03392800  0.87222700  1
  C  C59  1  0.84189300  0.46607200  0.62777300  1
  C  C60  1  0.34189300  0.46607200  0.87222700  1
  C  C61  1  0.84189300  0.03392800  0.62777300  1
  C  C62  1  0.65810700  0.96607200  0.12777300  1
  C  C63  1  0.15810700  0.53392800  0.37222700  1
  Cu  Cu64  1  0.63892800  0.42702900  0.37668400  1
  Cu  Cu65  1  0.13892800  0.07297100  0.12331600  1
  Cu  Cu66  1  0.36107200  0.92702900  0.62331600  1
  Cu  Cu67  1  0.86107200  0.57297100  0.87668400  1
  Cu  Cu68  1  0.36107200  0.57297100  0.62331600  1
  Cu  Cu69  1  0.86107200  0.92702900  0.87668400  1
  Cu  Cu70  1  0.63892800  0.07297100  0.37668400  1
  Cu  Cu71  1  0.13892800  0.42702900  0.12331600  1
  Cu  Cu72  1  0.02314500  0.25000000  0.80994900  1
  Cu  Cu73  1  0.52314500  0.25000000  0.69005100  1
  Cu  Cu74  1  0.97685500  0.75000000  0.19005100  1
  Cu  Cu75  1  0.47685500  0.75000000  0.30994900  1
  Cu  Cu76  1  0.61109500  0.25000000  0.02604200  1
  Cu  Cu77  1  0.11109500  0.25000000  0.47395800  1
  Cu  Cu78  1  0.38890500  0.75000000  0.97395800  1
  Cu  Cu79  1  0.88890500  0.75000000  0.52604200  1
