# generated using pymatgen
data_Cu10NiC4
_symmetry_space_group_name_H-M   'P 1'
_cell_length_a   12.34606700
_cell_length_b   7.72842700
_cell_length_c   12.26170059
_cell_angle_alpha   76.33855734
_cell_angle_beta   90.00000000
_cell_angle_gamma   90.00000000
_symmetry_Int_Tables_number   1
_chemical_formula_structural   Cu10NiC4
_chemical_formula_sum   'Cu40 Ni4 C16'
_cell_volume   1136.85833317
_cell_formula_units_Z   4
loop_
 _symmetry_equiv_pos_site_id
 _symmetry_equiv_pos_as_xyz
  1  'x, y, z'
loop_
 _atom_site_type_symbol
 _atom_site_label
 _atom_site_symmetry_multiplicity
 _atom_site_fract_x
 _atom_site_fract_y
 _atom_site_fract_z
 _atom_site_occupancy
  C  C0  1  0.41871900  0.15345300  0.62173200  1
  C  C1  1  0.08128100  0.15345300  0.12173200  1
  C  C2  1  0.58128100  0.84654700  0.37826800  1
  C  C3  1  0.91871900  0.84654700  0.87826800  1
  C  C4  1  0.33915100  0.68065200  0.57493500  1
  C  C5  1  0.16084900  0.68065200  0.07493500  1
  C  C6  1  0.66084900  0.31934800  0.42506500  1
  C  C7  1  0.83915100  0.31934800  0.92506500  1
  C  C8  1  0.35111900  0.80513700  0.92929900  1
  C  C9  1  0.14888100  0.80513700  0.42929900  1
  C  C10  1  0.64888100  0.19486300  0.07070100  1
  C  C11  1  0.85111900  0.19486300  0.57070100  1
  C  C12  1  0.16175600  0.86734200  0.64994400  1
  C  C13  1  0.33824400  0.86734200  0.14994400  1
  C  C14  1  0.83824400  0.13265800  0.35005600  1
  C  C15  1  0.66175600  0.13265800  0.85005600  1
  Ni  Ni16  1  0.39790000  0.47814400  0.91856300  1
  Ni  Ni17  1  0.10210000  0.47814400  0.41856300  1
  Ni  Ni18  1  0.60210000  0.52185600  0.08143700  1
  Ni  Ni19  1  0.89790000  0.52185600  0.58143700  1
  Cu  Cu20  1  0.09253300  0.81819800  0.54216000  1
  Cu  Cu21  1  0.40746700  0.81819800  0.04216000  1
  Cu  Cu22  1  0.90746700  0.18180200  0.45784000  1
  Cu  Cu23  1  0.59253300  0.18180200  0.95784000  1
  Cu  Cu24  1  0.25161300  0.70577400  0.66826000  1
  Cu  Cu25  1  0.24838700  0.70577400  0.16826000  1
  Cu  Cu26  1  0.74838700  0.29422600  0.33174000  1
  Cu  Cu27  1  0.75161300  0.29422600  0.83174000  1
  Cu  Cu28  1  0.23939900  0.70941900  0.96114100  1
  Cu  Cu29  1  0.26060100  0.70941900  0.46114100  1
  Cu  Cu30  1  0.76060100  0.29058100  0.03885900  1
  Cu  Cu31  1  0.73939900  0.29058100  0.53885900  1
  Cu  Cu32  1  0.37616900  0.49266000  0.60145100  1
  Cu  Cu33  1  0.12383100  0.49266000  0.10145100  1
  Cu  Cu34  1  0.62383100  0.50734000  0.39854900  1
  Cu  Cu35  1  0.87616900  0.50734000  0.89854900  1
  Cu  Cu36  1  0.42035200  0.83009300  0.55007100  1
  Cu  Cu37  1  0.07964800  0.83009300  0.05007100  1
  Cu  Cu38  1  0.57964800  0.16990700  0.44992900  1
  Cu  Cu39  1  0.92035200  0.16990700  0.94992900  1
  Cu  Cu40  1  0.35358300  0.96249500  0.83488200  1
  Cu  Cu41  1  0.14641700  0.96249500  0.33488200  1
  Cu  Cu42  1  0.64641700  0.03750500  0.16511800  1
  Cu  Cu43  1  0.85358300  0.03750500  0.66511800  1
  Cu  Cu44  1  0.42434600  0.64548200  0.88838800  1
  Cu  Cu45  1  0.07565400  0.64548200  0.38838800  1
  Cu  Cu46  1  0.57565400  0.35451800  0.11161200  1
  Cu  Cu47  1  0.92434600  0.35451800  0.61161200  1
  Cu  Cu48  1  0.21655500  0.04132000  0.60538600  1
  Cu  Cu49  1  0.28344500  0.04132000  0.10538600  1
  Cu  Cu50  1  0.78344500  0.95868000  0.39461400  1
  Cu  Cu51  1  0.71655500  0.95868000  0.89461400  1
  Cu  Cu52  1  0.08713100  0.83142400  0.74699400  1
  Cu  Cu53  1  0.41286900  0.83142400  0.24699400  1
  Cu  Cu54  1  0.91286900  0.16857600  0.25300600  1
  Cu  Cu55  1  0.58713100  0.16857600  0.75300600  1
  Cu  Cu56  1  0.12333200  0.35451200  0.89450500  1
  Cu  Cu57  1  0.37666800  0.35451200  0.39450500  1
  Cu  Cu58  1  0.87666800  0.64548800  0.10549500  1
  Cu  Cu59  1  0.62333200  0.64548800  0.60549500  1
