# generated using pymatgen
data_Cu11NiC6
_symmetry_space_group_name_H-M   'P 1'
_cell_length_a   5.91623978
_cell_length_b   5.91623978
_cell_length_c   7.62695598
_cell_angle_alpha   74.05698553
_cell_angle_beta   74.05698553
_cell_angle_gamma   72.74667302
_symmetry_Int_Tables_number   1
_chemical_formula_structural   Cu11NiC6
_chemical_formula_sum   'Cu11 Ni1 C6'
_cell_volume   239.65134210
_cell_formula_units_Z   1
loop_
 _symmetry_equiv_pos_site_id
 _symmetry_equiv_pos_as_xyz
  1  'x, y, z'
loop_
 _atom_site_type_symbol
 _atom_site_label
 _atom_site_symmetry_multiplicity
 _atom_site_fract_x
 _atom_site_fract_y
 _atom_site_fract_z
 _atom_site_occupancy
  C  C0  1  0.33291000  0.33291000  0.16693500  1
  C  C1  1  0.66338200  0.66338200  0.35239300  1
  C  C2  1  0.34730800  0.34730800  0.67143600  1
  C  C3  1  0.65986000  0.65986000  0.82102200  1
  C  C4  1  0.00252000  0.00252000  0.50111400  1
  C  C5  1  0.99619500  0.99619500  0.99466300  1
  Ni  Ni6  1  0.56856400  0.56856400  0.64008000  1
  Cu  Cu7  1  0.96994600  0.36264800  0.33035500  1
  Cu  Cu8  1  0.63868600  0.02154400  0.67095500  1
  Cu  Cu9  1  0.11119700  0.11119700  0.69986100  1
  Cu  Cu10  1  0.43348600  0.43348600  0.37262200  1
  Cu  Cu11  1  0.75876900  0.75876900  0.02796600  1
  Cu  Cu12  1  0.89960600  0.89960600  0.29222300  1
  Cu  Cu13  1  0.22913300  0.22913300  0.96585300  1
  Cu  Cu14  1  0.02154400  0.63868600  0.67095500  1
  Cu  Cu15  1  0.36264800  0.96994600  0.33035500  1
  Cu  Cu16  1  0.69585800  0.30839000  0.99560600  1
  Cu  Cu17  1  0.30839000  0.69585800  0.99560600  1
