# generated using pymatgen
data_Cu32(Ni17C12)5
_symmetry_space_group_name_H-M   'P 1'
_cell_length_a   12.86740200
_cell_length_b   13.40505396
_cell_length_c   13.64377309
_cell_angle_alpha   89.98379194
_cell_angle_beta   89.86202409
_cell_angle_gamma   89.87686042
_symmetry_Int_Tables_number   1
_chemical_formula_structural   Cu32(Ni17C12)5
_chemical_formula_sum   'Cu32 Ni85 C60'
_cell_volume   2353.37775856
_cell_formula_units_Z   1
loop_
 _symmetry_equiv_pos_site_id
 _symmetry_equiv_pos_as_xyz
  1  'x, y, z'
loop_
 _atom_site_type_symbol
 _atom_site_label
 _atom_site_symmetry_multiplicity
 _atom_site_fract_x
 _atom_site_fract_y
 _atom_site_fract_z
 _atom_site_occupancy
  C  C0  1  0.47647300  0.74866100  0.63013000  1
  C  C1  1  0.97623800  0.24848300  0.86980800  1
  C  C2  1  0.97620700  0.75156700  0.86975700  1
  C  C3  1  0.47672900  0.25153900  0.63027700  1
  C  C4  1  0.52316400  0.74838400  0.36923900  1
  C  C5  1  0.02321100  0.24830700  0.13093800  1
  C  C6  1  0.02347100  0.75181200  0.13042300  1
  C  C7  1  0.52430100  0.25347600  0.36949400  1
  C  C8  1  0.20810200  0.74637700  0.73058900  1
  C  C9  1  0.87776200  0.99990900  0.80150100  1
  C  C10  1  0.70815400  0.24633500  0.76944500  1
  C  C11  1  0.70813700  0.75373500  0.76943000  1
  C  C12  1  0.62989600  0.00013500  0.71441900  1
  C  C13  1  0.37798100  0.50009800  0.69828200  1
  C  C14  1  0.20838000  0.25403400  0.73002900  1
  C  C15  1  0.12963800  0.50024800  0.78568100  1
  C  C16  1  0.79151100  0.74637300  0.26980500  1
  C  C17  1  0.36627400  0.99646000  0.28437000  1
  C  C18  1  0.29183700  0.24490800  0.23000600  1
  C  C19  1  0.29141400  0.75230700  0.22948300  1
  C  C20  1  0.11847000  0.00039300  0.19596300  1
  C  C21  1  0.86897900  0.49976700  0.22022900  1
  C  C22  1  0.79190000  0.25368700  0.26990900  1
  C  C23  1  0.61763300  0.49995700  0.30339500  1
  Ni  Ni24  1  0.48730400  0.43359300  0.85437800  1
  Ni  Ni25  1  0.38430500  0.56635700  0.51092600  1
  Ni  Ni26  1  0.30610900  0.88751500  0.83718600  1
  Ni  Ni27  1  0.30354600  0.77175400  0.90302300  1
  Ni  Ni28  1  0.19048700  0.85080700  0.90221200  1
  Ni  Ni29  1  0.15280700  0.84057000  0.56106800  1
  Ni  Ni30  1  0.10978600  0.56736500  0.97351100  1
  Ni  Ni31  1  0.11328100  0.71246000  0.55772500  1
  Ni  Ni32  1  0.03806600  0.80054800  0.62612500  1
  Ni  Ni33  1  0.98732600  0.06649200  0.64531600  1
  Ni  Ni34  1  0.98747900  0.93360200  0.64530000  1
  Ni  Ni35  1  0.96561600  0.43284800  0.68131700  1
  Ni  Ni36  1  0.87579700  0.00014000  0.60149700  1
  Ni  Ni37  1  0.88365800  0.06645000  0.98891800  1
  Ni  Ni38  1  0.88416200  0.93365100  0.98899300  1
  Ni  Ni39  1  0.80617000  0.38747400  0.66263600  1
  Ni  Ni40  1  0.80636600  0.61235700  0.66256900  1
  Ni  Ni41  1  0.80377500  0.27181800  0.59669400  1
  Ni  Ni42  1  0.80369700  0.72809000  0.59669800  1
  Ni  Ni43  1  0.76414900  0.99998600  0.96847100  1
  Ni  Ni44  1  0.72914800  0.99980500  0.54092800  1
  Ni  Ni45  1  0.69069800  0.35077500  0.59786200  1
  Ni  Ni46  1  0.69077000  0.64937800  0.59789800  1
  Ni  Ni47  1  0.65267300  0.34050300  0.93886900  1
  Ni  Ni48  1  0.65283700  0.65945200  0.93885100  1
  Ni  Ni49  1  0.61030600  0.06753000  0.52662800  1
  Ni  Ni50  1  0.60999200  0.93278300  0.52661000  1
  Ni  Ni51  1  0.61298300  0.21248400  0.94245500  1
  Ni  Ni52  1  0.61285800  0.78750500  0.94252600  1
  Ni  Ni53  1  0.53791200  0.30055200  0.87415000  1
  Ni  Ni54  1  0.53802400  0.69960700  0.87406300  1
  Ni  Ni55  1  0.55102300  0.99999500  0.89925200  1
  Ni  Ni56  1  0.48719100  0.56645400  0.85440500  1
  Ni  Ni57  1  0.46531000  0.06730200  0.81899300  1
  Ni  Ni58  1  0.46550100  0.93284500  0.81887900  1
  Ni  Ni59  1  0.37558200  0.50009100  0.89848400  1
  Ni  Ni60  1  0.38437000  0.43367900  0.51097400  1
  Ni  Ni61  1  0.30667200  0.11265000  0.83697100  1
  Ni  Ni62  1  0.30425300  0.22860700  0.90259200  1
  Ni  Ni63  1  0.26437000  0.50013100  0.53185400  1
  Ni  Ni64  1  0.22894600  0.49989200  0.95875100  1
  Ni  Ni65  1  0.19124400  0.15065600  0.90122400  1
  Ni  Ni66  1  0.15299600  0.15942600  0.56097400  1
  Ni  Ni67  1  0.10992700  0.43268400  0.97347200  1
  Ni  Ni68  1  0.11294100  0.28754700  0.55740400  1
  Ni  Ni69  1  0.03824600  0.19966900  0.62629100  1
  Ni  Ni70  1  0.05135800  0.50000600  0.60080900  1
  Ni  Ni71  1  0.03509900  0.43251600  0.31905900  1
  Ni  Ni72  1  0.96536800  0.56733000  0.68118900  1
  Ni  Ni73  1  0.96157500  0.80472200  0.37263200  1
  Ni  Ni74  1  0.88940100  0.71362800  0.44171700  1
  Ni  Ni75  1  0.84607200  0.84074800  0.43846100  1
  Ni  Ni76  1  0.80790100  0.85037000  0.09959500  1
  Ni  Ni77  1  0.69566600  0.77105900  0.09756900  1
  Ni  Ni78  1  0.69110700  0.88703300  0.16337400  1
  Ni  Ni79  1  0.54523500  0.05822500  0.18190100  1
  Ni  Ni80  1  0.45810400  0.98928900  0.09608700  1
  Ni  Ni81  1  0.46139600  0.30459600  0.12723400  1
  Ni  Ni82  1  0.46211200  0.69482800  0.12644000  1
  Ni  Ni83  1  0.38993100  0.21355400  0.05790400  1
  Ni  Ni84  1  0.38943300  0.78614100  0.05827300  1
  Ni  Ni85  1  0.39609400  0.06084400  0.48117000  1
  Ni  Ni86  1  0.34580000  0.34065900  0.06186800  1
  Ni  Ni87  1  0.34697600  0.65881100  0.06050800  1
  Ni  Ni88  1  0.30887600  0.34922100  0.40047600  1
  Ni  Ni89  1  0.30862400  0.64980100  0.40129900  1
  Ni  Ni90  1  0.27378300  0.98779500  0.46929900  1
  Ni  Ni91  1  0.23540800  0.99048600  0.02290900  1
  Ni  Ni92  1  0.19567600  0.27108100  0.40274600  1
  Ni  Ni93  1  0.19575700  0.72889100  0.40226600  1
  Ni  Ni94  1  0.19371400  0.38670700  0.33621500  1
  Ni  Ni95  1  0.19328900  0.61223800  0.33764200  1
  Ni  Ni96  1  0.10875600  0.05573800  0.99822000  1
  Ni  Ni97  1  0.10976900  0.00083200  0.41355100  1
  Ni  Ni98  1  0.03481300  0.56740000  0.31896200  1
  Ni  Ni99  1  0.95007600  0.50002600  0.40069400  1
  Ni  Ni100  1  0.96181300  0.19507800  0.37279700  1
  Ni  Ni101  1  0.88943000  0.28629000  0.44181800  1
  Ni  Ni102  1  0.84623100  0.15928300  0.43853000  1
  Ni  Ni103  1  0.80899200  0.15044800  0.09901300  1
  Ni  Ni104  1  0.77894400  0.50014800  0.02114400  1
  Ni  Ni105  1  0.73545000  0.49983000  0.48885800  1
  Ni  Ni106  1  0.69560200  0.22891700  0.09753400  1
  Ni  Ni107  1  0.69382700  0.11281400  0.16335700  1
  Ni  Ni108  1  0.61052500  0.49998000  0.08610900  1
  Cu  Cu109  1  0.25749500  0.82463100  0.85973300  1
  Cu  Cu110  1  0.11658700  0.78002400  0.60285400  1
  Cu  Cu111  1  0.93945500  0.00008800  0.65463800  1
  Cu  Cu112  1  0.84844500  0.99998600  0.95668700  1
  Cu  Cu113  1  0.75762600  0.32460400  0.64017900  1
  Cu  Cu114  1  0.75768500  0.67535100  0.64018300  1
  Cu  Cu115  1  0.64561800  0.00000100  0.55710000  1
  Cu  Cu116  1  0.61636000  0.28002600  0.89725800  1
  Cu  Cu117  1  0.61639700  0.72002900  0.89725400  1
  Cu  Cu118  1  0.51259300  0.00004100  0.82740100  1
  Cu  Cu119  1  0.43930700  0.50007300  0.84510400  1
  Cu  Cu120  1  0.34867000  0.50007100  0.54328200  1
  Cu  Cu121  1  0.25839100  0.17611100  0.85896600  1
  Cu  Cu122  1  0.14541400  0.49999100  0.94290300  1
  Cu  Cu123  1  0.11661600  0.22007500  0.60269100  1
  Cu  Cu124  1  0.01271800  0.50006400  0.67274700  1
  Cu  Cu125  1  0.88410400  0.78117500  0.39658100  1
  Cu  Cu126  1  0.74051700  0.82428700  0.14125100  1
  Cu  Cu127  1  0.47694700  0.01168000  0.17097600  1
  Cu  Cu128  1  0.38416600  0.28095100  0.10315500  1
  Cu  Cu129  1  0.38455800  0.71812200  0.10271600  1
  Cu  Cu130  1  0.34721700  0.01214900  0.43707500  1
  Cu  Cu131  1  0.24173100  0.32332600  0.35878600  1
  Cu  Cu132  1  0.24162400  0.67559000  0.35919600  1
  Cu  Cu133  1  0.15760200  0.01173100  0.04694500  1
  Cu  Cu134  1  0.06947100  0.99882000  0.34305800  1
  Cu  Cu135  1  0.98840900  0.49997800  0.32872600  1
  Cu  Cu136  1  0.88430500  0.21874300  0.39671700  1
  Cu  Cu137  1  0.84714900  0.49991800  0.06850900  1
  Cu  Cu138  1  0.74169200  0.17627800  0.14099500  1
  Cu  Cu139  1  0.65994400  0.50004500  0.45203000  1
  Cu  Cu140  1  0.56907600  0.50021500  0.15612600  1
  C  C141  1  0.56841800  0.82104700  0.69232500  1
  C  C142  1  0.49152300  0.62982900  0.66891000  1
  C  C143  1  0.35193400  0.78668500  0.65617100  1
  C  C144  1  0.24688800  0.59889500  0.73484100  1
  C  C145  1  0.06821700  0.32091300  0.80733000  1
  C  C146  1  0.06840200  0.67896400  0.80732900  1
  C  C147  1  0.00059800  0.25593400  0.00059100  1
  C  C148  1  0.99194900  0.12933300  0.83140400  1
  C  C149  1  0.99143000  0.87044400  0.83074200  1
  C  C150  1  0.85181400  0.28618400  0.84389000  1
  C  C151  1  0.85195400  0.71377900  0.84388500  1
  C  C152  1  0.74689800  0.09874400  0.76510200  1
  C  C153  1  0.74694600  0.90118900  0.76508500  1
  C  C154  1  0.56866600  0.17885900  0.69258500  1
  C  C155  1  0.49977200  0.24196100  0.49936300  1
  C  C156  1  0.49149900  0.37033100  0.66886300  1
  C  C157  1  0.35226900  0.21325500  0.65573600  1
  C  C158  1  0.24697200  0.40138200  0.73462900  1
  C  C159  1  0.75085700  0.59867300  0.26516400  1
  C  C160  1  0.64715400  0.78646100  0.34519200  1
  C  C161  1  0.50955600  0.62763000  0.33114100  1
  C  C162  1  0.49953400  0.75702700  0.49893100  1
  C  C163  1  0.43083700  0.82265500  0.30691300  1
  C  C164  1  0.24991100  0.09825500  0.23654500  1
  C  C165  1  0.25019900  0.90016200  0.23455000  1
  C  C166  1  0.14690500  0.28667800  0.15620500  1
  C  C167  1  0.14728700  0.71224900  0.15571600  1
  C  C168  1  0.00815100  0.12820300  0.16979200  1
  C  C169  1  0.00982200  0.87237400  0.16858500  1
  C  C170  1  0.00020000  0.74354000  0.00054000  1
  C  C171  1  0.93090400  0.32165700  0.19305200  1
  C  C172  1  0.93112100  0.67916100  0.19275900  1
  C  C173  1  0.75082100  0.40145700  0.26520300  1
  C  C174  1  0.64797600  0.21356600  0.34438400  1
  C  C175  1  0.51030000  0.37455100  0.33177900  1
  C  C176  1  0.43302200  0.18120900  0.30738900  1
