# generated using pymatgen
data_Cu6NiC10
_symmetry_space_group_name_H-M   'P 1'
_cell_length_a   9.85388607
_cell_length_b   9.85388607
_cell_length_c   9.85388606
_cell_angle_alpha   99.14738960
_cell_angle_beta   99.14738960
_cell_angle_gamma   99.14739301
_symmetry_Int_Tables_number   1
_chemical_formula_structural   Cu6NiC10
_chemical_formula_sum   'Cu36 Ni6 C60'
_cell_volume   915.80889180
_cell_formula_units_Z   6
loop_
 _symmetry_equiv_pos_site_id
 _symmetry_equiv_pos_as_xyz
  1  'x, y, z'
loop_
 _atom_site_type_symbol
 _atom_site_label
 _atom_site_symmetry_multiplicity
 _atom_site_fract_x
 _atom_site_fract_y
 _atom_site_fract_z
 _atom_site_occupancy
  C  C0  1  0.75000000  0.24974200  0.25025800  1
  C  C1  1  0.74974200  0.25000000  0.75025800  1
  C  C2  1  0.75025800  0.74974200  0.25000000  1
  C  C3  1  0.24974200  0.25025800  0.75000000  1
  C  C4  1  0.25025800  0.75000000  0.24974200  1
  C  C5  1  0.25000000  0.75025800  0.74974200  1
  C  C6  1  0.94070700  0.55929300  0.75000000  1
  C  C7  1  0.25000000  0.05929300  0.44070700  1
  C  C8  1  0.44070700  0.25000000  0.05929300  1
  C  C9  1  0.75000000  0.94070700  0.55929300  1
  C  C10  1  0.55929300  0.75000000  0.94070700  1
  C  C11  1  0.05929300  0.44070700  0.25000000  1
  Ni  Ni12  1  0.43986500  0.06013500  0.25000000  1
  Ni  Ni13  1  0.75000000  0.56013500  0.93986500  1
  Ni  Ni14  1  0.93986500  0.75000000  0.56013500  1
  Ni  Ni15  1  0.25000000  0.43986500  0.06013500  1
  Ni  Ni16  1  0.06013500  0.25000000  0.43986500  1
  Ni  Ni17  1  0.56013500  0.93986500  0.75000000  1
  Cu  Cu18  1  0.83229000  0.02164700  0.13012300  1
  Cu  Cu19  1  0.86987700  0.16771000  0.97835300  1
  Cu  Cu20  1  0.83420000  0.13092700  0.52697700  1
  Cu  Cu21  1  0.97966900  0.29499900  0.96144100  1
  Cu  Cu22  1  0.70500100  0.03855900  0.02033100  1
  Cu  Cu23  1  0.97302300  0.36907300  0.66580000  1
  Cu  Cu24  1  0.86907300  0.47302300  0.16580000  1
  Cu  Cu25  1  0.53855900  0.20500100  0.52033100  1
  Cu  Cu26  1  0.79499900  0.47966900  0.46144100  1
  Cu  Cu27  1  0.63092700  0.33420000  0.02697700  1
  Cu  Cu28  1  0.66771000  0.36987700  0.47835300  1
  Cu  Cu29  1  0.47302300  0.16580000  0.86907300  1
  Cu  Cu30  1  0.33420000  0.02697700  0.63092700  1
  Cu  Cu31  1  0.52164700  0.33229000  0.63012300  1
  Cu  Cu32  1  0.63012300  0.52164700  0.33229000  1
  Cu  Cu33  1  0.97835300  0.86987700  0.16771000  1
  Cu  Cu34  1  0.47966900  0.46144100  0.79499900  1
  Cu  Cu35  1  0.03855900  0.02033100  0.70500100  1
  Cu  Cu36  1  0.52033100  0.53855900  0.20500100  1
  Cu  Cu37  1  0.96144100  0.97966900  0.29499900  1
  Cu  Cu38  1  0.02164700  0.13012300  0.83229000  1
  Cu  Cu39  1  0.36987700  0.47835300  0.66771000  1
  Cu  Cu40  1  0.47835300  0.66771000  0.36987700  1
  Cu  Cu41  1  0.66580000  0.97302300  0.36907300  1
  Cu  Cu42  1  0.52697700  0.83420000  0.13092700  1
  Cu  Cu43  1  0.33229000  0.63012300  0.52164700  1
  Cu  Cu44  1  0.36907300  0.66580000  0.97302300  1
  Cu  Cu45  1  0.20500100  0.52033100  0.53855900  1
  Cu  Cu46  1  0.46144100  0.79499900  0.47966900  1
  Cu  Cu47  1  0.13092700  0.52697700  0.83420000  1
  Cu  Cu48  1  0.02697700  0.63092700  0.33420000  1
  Cu  Cu49  1  0.29499900  0.96144100  0.97966900  1
  Cu  Cu50  1  0.02033100  0.70500100  0.03855900  1
  Cu  Cu51  1  0.16580000  0.86907300  0.47302300  1
  Cu  Cu52  1  0.13012300  0.83229000  0.02164700  1
  Cu  Cu53  1  0.16771000  0.97835300  0.86987700  1
  C  C54  1  0.90156400  0.20135300  0.39406600  1
  C  C55  1  0.78955400  0.09349600  0.60064200  1
  C  C56  1  0.78689000  0.09423000  0.08856000  1
  C  C57  1  0.91144000  0.21311000  0.90577000  1
  C  C58  1  0.60593400  0.09843600  0.79864700  1
  C  C59  1  0.90650400  0.39935800  0.21044600  1
  C  C60  1  0.89935800  0.40650400  0.71044600  1
  C  C61  1  0.59843600  0.10593400  0.29864700  1
  C  C62  1  0.71311000  0.41144000  0.40577000  1
  C  C63  1  0.59423000  0.28689000  0.58856000  1
  C  C64  1  0.59349600  0.28955400  0.10064200  1
  C  C65  1  0.70135300  0.40156400  0.89406600  1
  C  C66  1  0.88613800  0.62234700  0.62771800  1
  C  C67  1  0.87765300  0.61386200  0.87228200  1
  C  C68  1  0.37228200  0.11386200  0.37765300  1
  C  C69  1  0.38613800  0.12771800  0.12234700  1
  C  C70  1  0.89406600  0.70135300  0.40156400  1
  C  C71  1  0.79864700  0.60593400  0.09843600  1
  C  C72  1  0.39935800  0.21044600  0.90650400  1
  C  C73  1  0.28955400  0.10064200  0.59349600  1
  C  C74  1  0.37765300  0.37228200  0.11386200  1
  C  C75  1  0.12771800  0.12234700  0.38613800  1
  C  C76  1  0.58856000  0.59423000  0.28689000  1
  C  C77  1  0.90577000  0.91144000  0.21311000  1
  C  C78  1  0.41144000  0.40577000  0.71311000  1
  C  C79  1  0.09423000  0.08856000  0.78689000  1
  C  C80  1  0.87228200  0.87765300  0.61386200  1
  C  C81  1  0.62234700  0.62771800  0.88613800  1
  C  C82  1  0.60064200  0.78955400  0.09349600  1
  C  C83  1  0.71044600  0.89935800  0.40650400  1
  C  C84  1  0.20135300  0.39406600  0.90156400  1
  C  C85  1  0.10593400  0.29864700  0.59843600  1
  C  C86  1  0.62771800  0.88613800  0.62234700  1
  C  C87  1  0.61386200  0.87228200  0.87765300  1
  C  C88  1  0.12234700  0.38613800  0.12771800  1
  C  C89  1  0.11386200  0.37765300  0.37228200  1
  C  C90  1  0.29864700  0.59843600  0.10593400  1
  C  C91  1  0.40650400  0.71044600  0.89935800  1
  C  C92  1  0.40577000  0.71311000  0.41144000  1
  C  C93  1  0.28689000  0.58856000  0.59423000  1
  C  C94  1  0.40156400  0.89406600  0.70135300  1
  C  C95  1  0.10064200  0.59349600  0.28955400  1
  C  C96  1  0.09349600  0.60064200  0.78955400  1
  C  C97  1  0.39406600  0.90156400  0.20135300  1
  C  C98  1  0.08856000  0.78689000  0.09423000  1
  C  C99  1  0.21311000  0.90577000  0.91144000  1
  C  C100  1  0.21044600  0.90650400  0.39935800  1
  C  C101  1  0.09843600  0.79864700  0.60593400  1
