# generated using pymatgen
data_Cu3NiC36
_symmetry_space_group_name_H-M   'P 1'
_cell_length_a   8.99750723
_cell_length_b   8.45606921
_cell_length_c   14.57644128
_cell_angle_alpha   89.74242108
_cell_angle_beta   74.44085127
_cell_angle_gamma   61.98595244
_symmetry_Int_Tables_number   1
_chemical_formula_structural   Cu3NiC36
_chemical_formula_sum   'Cu6 Ni2 C72'
_cell_volume   933.53275489
_cell_formula_units_Z   2
loop_
 _symmetry_equiv_pos_site_id
 _symmetry_equiv_pos_as_xyz
  1  'x, y, z'
loop_
 _atom_site_type_symbol
 _atom_site_label
 _atom_site_symmetry_multiplicity
 _atom_site_fract_x
 _atom_site_fract_y
 _atom_site_fract_z
 _atom_site_occupancy
  C  C0  1  0.15131300  0.25378500  0.33082500  1
  C  C1  1  0.15142600  0.79438500  0.13173100  1
  C  C2  1  0.15045100  0.29510700  0.63260500  1
  C  C3  1  0.15058100  0.72527500  0.46128500  1
  C  C4  1  0.15073600  0.22513000  0.96054000  1
  C  C5  1  0.14883200  0.75344800  0.83192900  1
  C  C6  1  0.84884800  0.24671600  0.16839700  1
  C  C7  1  0.84840300  0.77606200  0.03821400  1
  C  C8  1  0.84943600  0.27454500  0.53898100  1
  C  C9  1  0.84975500  0.70487300  0.36820500  1
  C  C10  1  0.84881600  0.20544200  0.86857800  1
  C  C11  1  0.84928200  0.74622400  0.66904200  1
  Ni  Ni12  1  0.04272100  0.47893700  0.82639600  1
  Ni  Ni13  1  0.56139300  0.21751600  0.07197700  1
  Cu  Cu14  1  0.04602000  0.97728500  0.32524500  1
  Cu  Cu15  1  0.43705900  0.28137200  0.42615500  1
  Cu  Cu16  1  0.56014300  0.71929400  0.57491900  1
  Cu  Cu17  1  0.43843700  0.78176600  0.92809100  1
  Cu  Cu18  1  0.95355900  0.52359900  0.17386300  1
  Cu  Cu19  1  0.95355200  0.02199900  0.67503500  1
  C  C20  1  0.24994900  0.08334700  0.12537600  1
  C  C21  1  0.25010900  0.01901000  0.47962300  1
  C  C22  1  0.25059000  0.52178700  0.27040800  1
  C  C23  1  0.25163600  0.01883200  0.76875800  1
  C  C24  1  0.25065900  0.58397600  0.62552700  1
  C  C25  1  0.25234800  0.51760800  0.97959500  1
  C  C26  1  0.75119600  0.47878300  0.02086100  1
  C  C27  1  0.74907700  0.41691400  0.37496100  1
  C  C28  1  0.74833900  0.98046200  0.22934400  1
  C  C29  1  0.74923500  0.47933300  0.73008700  1
  C  C30  1  0.74955700  0.98069000  0.52068600  1
  C  C31  1  0.74984900  0.91772600  0.87478700  1
  C  C32  1  0.09650100  0.26120100  0.10484600  1
  C  C33  1  0.19061100  0.06667000  0.23435100  1
  C  C34  1  0.09855000  0.61487500  0.07849400  1
  C  C35  1  0.09766900  0.11405600  0.57813300  1
  C  C36  1  0.09658500  0.47913700  0.26886700  1
  C  C37  1  0.42084000  0.08817200  0.09971500  1
  C  C38  1  0.26604800  0.17659400  0.43134400  1
  C  C39  1  0.18950300  0.72323800  0.25493600  1
  C  C40  1  0.19873300  0.21316000  0.74972700  1
  C  C41  1  0.26402300  0.49842500  0.37477200  1
  C  C42  1  0.42069500  0.39543100  0.19569600  1
  C  C43  1  0.09769400  0.76109000  0.60390700  1
  C  C44  1  0.26411200  0.92579500  0.06252200  1
  C  C45  1  0.26738800  0.42584800  0.56165500  1
  C  C46  1  0.57746700  0.10899300  0.30778600  1
  C  C47  1  0.19610200  0.56676400  0.73306400  1
  C  C48  1  0.19303400  0.92313400  0.41697600  1
  C  C49  1  0.19538600  0.42244900  0.91713300  1
  C  C50  1  0.73155600  0.00415500  0.12692500  1
  C  C51  1  0.57826400  0.61816600  0.00292700  1
  C  C52  1  0.57768500  0.11683300  0.50238300  1
  C  C53  1  0.09965000  0.97418600  0.76776600  1
  C  C54  1  0.73602600  0.32390400  0.06971400  1
  C  C55  1  0.57823400  0.40803600  0.40117000  1
  C  C56  1  0.42243800  0.59317500  0.59772400  1
  C  C57  1  0.26948700  0.67679900  0.93235500  1
  C  C58  1  0.90103300  0.02335100  0.23164800  1
  C  C59  1  0.42179800  0.88342900  0.49773500  1
  C  C60  1  0.42394900  0.38246700  0.99670800  1
  C  C61  1  0.26897400  0.99425600  0.87194400  1
  C  C62  1  0.80740500  0.57811800  0.08324100  1
  C  C63  1  0.80708400  0.07644500  0.58317500  1
  C  C64  1  0.80753400  0.43406300  0.26665900  1
  C  C65  1  0.42494800  0.88521900  0.69216300  1
  C  C66  1  0.73280200  0.57485700  0.43856200  1
  C  C67  1  0.73443400  0.07754800  0.93408800  1
  C  C68  1  0.90228600  0.23937900  0.39568600  1
  C  C69  1  0.57907600  0.60838700  0.80669300  1
  C  C70  1  0.73139900  0.50398400  0.62669400  1
  C  C71  1  0.80622500  0.78067900  0.24608400  1
  C  C72  1  0.80741400  0.27900800  0.74611100  1
  C  C73  1  0.73340700  0.82307300  0.56854900  1
  C  C74  1  0.57823100  0.90651600  0.90056600  1
  C  C75  1  0.90287700  0.52089500  0.72879900  1
  C  C76  1  0.90157800  0.88588900  0.42208300  1
  C  C77  1  0.90266000  0.38288100  0.92283500  1
  C  C78  1  0.80636200  0.93223300  0.76522200  1
  C  C79  1  0.90092600  0.74580400  0.89784600  1
