# generated using pymatgen
data_CuNiC4
_symmetry_space_group_name_H-M   'P 1'
_cell_length_a   5.27925600
_cell_length_b   8.51696300
_cell_length_c   8.65707386
_cell_angle_alpha   61.40419694
_cell_angle_beta   90.00000000
_cell_angle_gamma   90.00000000
_symmetry_Int_Tables_number   1
_chemical_formula_structural   CuNiC4
_chemical_formula_sum   'Cu4 Ni4 C16'
_cell_volume   341.76850871
_cell_formula_units_Z   4
loop_
 _symmetry_equiv_pos_site_id
 _symmetry_equiv_pos_as_xyz
  1  'x, y, z'
loop_
 _atom_site_type_symbol
 _atom_site_label
 _atom_site_symmetry_multiplicity
 _atom_site_fract_x
 _atom_site_fract_y
 _atom_site_fract_z
 _atom_site_occupancy
  Ni  Ni0  1  0.91544000  0.79513400  0.78792300  1
  Ni  Ni1  1  0.41544000  0.20486600  0.71207700  1
  Ni  Ni2  1  0.58456000  0.79513400  0.28792300  1
  Ni  Ni3  1  0.08456000  0.20486600  0.21207700  1
  Cu  Cu4  1  0.90419000  0.27726100  0.83032100  1
  Cu  Cu5  1  0.40419000  0.72273900  0.66967900  1
  Cu  Cu6  1  0.59581000  0.27726100  0.33032100  1
  Cu  Cu7  1  0.09581000  0.72273900  0.16967900  1
  C  C8  1  0.98509800  0.25789300  0.02617200  1
  C  C9  1  0.37263700  0.51687400  0.80978700  1
  C  C10  1  0.62666900  0.16963500  0.85023200  1
  C  C11  1  0.63176400  0.81500600  0.73914400  1
  C  C12  1  0.87263700  0.48312600  0.69021300  1
  C  C13  1  0.13176400  0.18499400  0.76085600  1
  C  C14  1  0.12666900  0.83036500  0.64976800  1
  C  C15  1  0.48509800  0.74210700  0.47382800  1
  C  C16  1  0.51490200  0.25789300  0.52617200  1
  C  C17  1  0.87333100  0.16963500  0.35023200  1
  C  C18  1  0.86823600  0.81500600  0.23914400  1
  C  C19  1  0.12736300  0.51687400  0.30978700  1
  C  C20  1  0.36823600  0.18499400  0.26085600  1
  C  C21  1  0.37333100  0.83036500  0.14976800  1
  C  C22  1  0.62736300  0.48312600  0.19021300  1
  C  C23  1  0.01490200  0.74210700  0.97382800  1
