# generated using pymatgen
data_Cu3NiC2
_symmetry_space_group_name_H-M   'P 1'
_cell_length_a   3.10580800
_cell_length_b   4.85121700
_cell_length_c   9.68896500
_cell_angle_alpha   90.00000000
_cell_angle_beta   90.00000000
_cell_angle_gamma   90.00000000
_symmetry_Int_Tables_number   1
_chemical_formula_structural   Cu3NiC2
_chemical_formula_sum   'Cu6 Ni2 C4'
_cell_volume   145.98313734
_cell_formula_units_Z   2
loop_
 _symmetry_equiv_pos_site_id
 _symmetry_equiv_pos_as_xyz
  1  'x, y, z'
loop_
 _atom_site_type_symbol
 _atom_site_label
 _atom_site_symmetry_multiplicity
 _atom_site_fract_x
 _atom_site_fract_y
 _atom_site_fract_z
 _atom_site_occupancy
  C  C0  1  0.50000000  0.53200600  0.36200600  1
  C  C1  1  0.50000000  0.47670200  0.87018400  1
  C  C2  1  0.00000000  0.03200600  0.63799400  1
  C  C3  1  0.00000000  0.97670200  0.12981600  1
  Ni  Ni4  1  0.00000000  0.69153800  0.28427400  1
  Ni  Ni5  1  0.50000000  0.19153800  0.71572600  1
  Cu  Cu6  1  0.00000000  0.70214800  0.76759800  1
  Cu  Cu7  1  0.50000000  0.80354900  0.52856200  1
  Cu  Cu8  1  0.50000000  0.79405800  0.02002600  1
  Cu  Cu9  1  0.50000000  0.20214800  0.23240200  1
  Cu  Cu10  1  0.00000000  0.29405800  0.97997400  1
  Cu  Cu11  1  0.00000000  0.30354900  0.47143800  1
