# generated using pymatgen
data_Cu2Ni2C5
_symmetry_space_group_name_H-M   'P 1'
_cell_length_a   6.69038500
_cell_length_b   7.10839500
_cell_length_c   8.27292200
_cell_angle_alpha   90.00001499
_cell_angle_beta   89.99998451
_cell_angle_gamma   90.00000000
_symmetry_Int_Tables_number   1
_chemical_formula_structural   Cu2Ni2C5
_chemical_formula_sum   'Cu8 Ni8 C20'
_cell_volume   393.44279124
_cell_formula_units_Z   4
loop_
 _symmetry_equiv_pos_site_id
 _symmetry_equiv_pos_as_xyz
  1  'x, y, z'
loop_
 _atom_site_type_symbol
 _atom_site_label
 _atom_site_symmetry_multiplicity
 _atom_site_fract_x
 _atom_site_fract_y
 _atom_site_fract_z
 _atom_site_occupancy
  C  C0  1  0.50000700  0.50000000  0.33228700  1
  C  C1  1  0.49999300  0.99999900  0.83228700  1
  C  C2  1  0.99999300  0.50000000  0.33228700  1
  C  C3  1  0.00000700  0.99999900  0.83228700  1
  C  C4  1  0.99999300  0.50000100  0.66771300  1
  C  C5  1  0.00000700  0.99999900  0.16771300  1
  C  C6  1  0.50000600  0.50000000  0.66771300  1
  C  C7  1  0.49999300  0.99999900  0.16771300  1
  C  C8  1  0.25000000  0.73764800  0.15766300  1
  C  C9  1  0.25000000  0.23763900  0.65766900  1
  C  C10  1  0.75000000  0.26236000  0.15766900  1
  C  C11  1  0.75000000  0.76235100  0.65766300  1
  C  C12  1  0.75000000  0.26236000  0.84233100  1
  C  C13  1  0.75000000  0.76235100  0.34233800  1
  C  C14  1  0.25000000  0.73764800  0.84233700  1
  C  C15  1  0.25000000  0.23763900  0.34233100  1
  C  C16  1  0.75000000  0.12440000  0.49999900  1
  C  C17  1  0.25000000  0.37559200  0.00000100  1
  C  C18  1  0.75000600  0.62442700  0.00000100  1
  C  C19  1  0.25000100  0.87558900  0.49999800  1
  Ni  Ni20  1  0.25000000  0.47535500  0.22296900  1
  Ni  Ni21  1  0.25000000  0.97535400  0.72297400  1
  Ni  Ni22  1  0.75000000  0.52464400  0.22297300  1
  Ni  Ni23  1  0.75000000  0.02464300  0.72297000  1
  Ni  Ni24  1  0.75000000  0.52464500  0.77702600  1
  Ni  Ni25  1  0.75000000  0.02464400  0.27703000  1
  Ni  Ni26  1  0.24999900  0.47535600  0.77703000  1
  Ni  Ni27  1  0.25000000  0.97535500  0.27702700  1
  Cu  Cu28  1  0.02800900  0.79851800  0.00000000  1
  Cu  Cu29  1  0.02800200  0.29852200  0.50000000  1
  Cu  Cu30  1  0.52800200  0.20147800  0.00000000  1
  Cu  Cu31  1  0.52800800  0.70148100  0.50000000  1
  Cu  Cu32  1  0.47199100  0.79851800  0.00000000  1
  Cu  Cu33  1  0.47199700  0.29852200  0.50000000  1
  Cu  Cu34  1  0.97199800  0.20147900  0.00000000  1
  Cu  Cu35  1  0.97199100  0.70148100  0.50000000  1
