# generated using pymatgen
data_Cu12Ni12C17
_symmetry_space_group_name_H-M   'P 1'
_cell_length_a   11.04814300
_cell_length_b   13.96767800
_cell_length_c   14.72626800
_cell_angle_alpha   90.00000000
_cell_angle_beta   90.00000000
_cell_angle_gamma   90.00000000
_symmetry_Int_Tables_number   1
_chemical_formula_structural   Cu12Ni12C17
_chemical_formula_sum   'Cu48 Ni48 C68'
_cell_volume   2272.51208408
_cell_formula_units_Z   4
loop_
 _symmetry_equiv_pos_site_id
 _symmetry_equiv_pos_as_xyz
  1  'x, y, z'
loop_
 _atom_site_type_symbol
 _atom_site_label
 _atom_site_symmetry_multiplicity
 _atom_site_fract_x
 _atom_site_fract_y
 _atom_site_fract_z
 _atom_site_occupancy
  C  C0  1  0.13270100  0.45809400  0.89151100  1
  C  C1  1  0.36729900  0.04190600  0.39151100  1
  C  C2  1  0.86729900  0.95809400  0.10848900  1
  C  C3  1  0.63270100  0.54190600  0.60848900  1
  C  C4  1  0.86729900  0.54190600  0.10848900  1
  C  C5  1  0.63270100  0.95809400  0.60848900  1
  C  C6  1  0.13270100  0.04190600  0.89151100  1
  C  C7  1  0.36729900  0.45809400  0.39151100  1
  C  C8  1  0.43143200  0.89557300  0.82263600  1
  C  C9  1  0.06856800  0.60442700  0.32263600  1
  C  C10  1  0.56856800  0.39557300  0.17736400  1
  C  C11  1  0.93143200  0.10442700  0.67736400  1
  C  C12  1  0.56856800  0.10442700  0.17736400  1
  C  C13  1  0.93143200  0.39557300  0.67736400  1
  C  C14  1  0.43143200  0.60442700  0.82263600  1
  C  C15  1  0.06856800  0.89557300  0.32263600  1
  C  C16  1  0.18954100  0.88032200  0.61162800  1
  C  C17  1  0.31045900  0.61967800  0.11162800  1
  C  C18  1  0.81045900  0.38032200  0.38837200  1
  C  C19  1  0.68954100  0.11967800  0.88837200  1
  C  C20  1  0.81045900  0.11967800  0.38837200  1
  C  C21  1  0.68954100  0.38032200  0.88837200  1
  C  C22  1  0.18954100  0.61967800  0.61162800  1
  C  C23  1  0.31045900  0.88032200  0.11162800  1
  C  C24  1  0.63097400  0.25000000  0.59625000  1
  C  C25  1  0.86902600  0.25000000  0.09625000  1
  C  C26  1  0.36902600  0.75000000  0.40375000  1
  C  C27  1  0.13097400  0.75000000  0.90375000  1
  C  C28  1  0.33359300  0.10976800  0.66379500  1
  C  C29  1  0.16640700  0.39023200  0.16379500  1
  C  C30  1  0.66640700  0.60976800  0.33620500  1
  C  C31  1  0.83359300  0.89023200  0.83620500  1
  C  C32  1  0.66640700  0.89023200  0.33620500  1
  C  C33  1  0.83359300  0.60976800  0.83620500  1
  C  C34  1  0.33359300  0.39023200  0.66379500  1
  C  C35  1  0.16640700  0.10976800  0.16379500  1
  C  C36  1  0.17314400  0.25000000  0.80169300  1
  C  C37  1  0.32685600  0.25000000  0.30169300  1
  C  C38  1  0.82685600  0.75000000  0.19830700  1
  C  C39  1  0.67314400  0.75000000  0.69830700  1
  C  C40  1  0.94756100  0.25000000  0.86547300  1
  C  C41  1  0.55243900  0.25000000  0.36547300  1
  C  C42  1  0.05243900  0.75000000  0.13452700  1
  C  C43  1  0.44756100  0.75000000  0.63452700  1
  C  C44  1  0.41038900  0.06516100  0.99938600  1
  C  C45  1  0.08961100  0.43483900  0.49938600  1
  C  C46  1  0.58961100  0.56516100  0.00061400  1
  C  C47  1  0.91038900  0.93483900  0.50061400  1
  C  C48  1  0.58961100  0.93483900  0.00061400  1
  C  C49  1  0.91038900  0.56516100  0.50061400  1
  C  C50  1  0.41038900  0.43483900  0.99938600  1
  C  C51  1  0.08961100  0.06516100  0.49938600  1
  C  C52  1  0.43736800  0.19383200  0.85346500  1
  C  C53  1  0.06263200  0.30616800  0.35346500  1
  C  C54  1  0.56263200  0.69383200  0.14653500  1
  C  C55  1  0.93736800  0.80616800  0.64653500  1
  C  C56  1  0.56263200  0.80616800  0.14653500  1
  C  C57  1  0.93736800  0.69383200  0.64653500  1
  C  C58  1  0.43736800  0.30616800  0.85346500  1
  C  C59  1  0.06263200  0.19383200  0.35346500  1
  C  C60  1  0.47931100  0.25000000  0.00068100  1
  C  C61  1  0.02068900  0.25000000  0.50068100  1
  C  C62  1  0.52068900  0.75000000  0.99931900  1
  C  C63  1  0.97931100  0.75000000  0.49931900  1
  C  C64  1  0.10851200  0.25000000  0.58429500  1
  C  C65  1  0.39148800  0.25000000  0.08429500  1
  C  C66  1  0.89148800  0.75000000  0.41570500  1
  C  C67  1  0.60851200  0.75000000  0.91570500  1
  Ni  Ni68  1  0.48862600  0.13916000  0.57216100  1
  Ni  Ni69  1  0.01137400  0.36084000  0.07216100  1
  Ni  Ni70  1  0.51137400  0.63916000  0.42783900  1
  Ni  Ni71  1  0.98862600  0.86084000  0.92783900  1
  Ni  Ni72  1  0.51137400  0.86084000  0.42783900  1
  Ni  Ni73  1  0.98862600  0.63916000  0.92783900  1
  Ni  Ni74  1  0.48862600  0.36084000  0.57216100  1
  Ni  Ni75  1  0.01137400  0.13916000  0.07216100  1
  Ni  Ni76  1  0.52632000  0.14112000  0.67084800  1
  Ni  Ni77  1  0.97368000  0.35888000  0.17084800  1
  Ni  Ni78  1  0.47368000  0.64112000  0.32915200  1
  Ni  Ni79  1  0.02632000  0.85888000  0.82915200  1
  Ni  Ni80  1  0.47368000  0.85888000  0.32915200  1
  Ni  Ni81  1  0.02632000  0.64112000  0.82915200  1
  Ni  Ni82  1  0.52632000  0.35888000  0.67084800  1
  Ni  Ni83  1  0.97368000  0.14112000  0.17084800  1
  Ni  Ni84  1  0.28353700  0.25000000  0.72191000  1
  Ni  Ni85  1  0.21646300  0.25000000  0.22191000  1
  Ni  Ni86  1  0.71646300  0.75000000  0.27809000  1
  Ni  Ni87  1  0.78353700  0.75000000  0.77809000  1
  Ni  Ni88  1  0.25843300  0.25000000  0.62170400  1
  Ni  Ni89  1  0.24156700  0.25000000  0.12170400  1
  Ni  Ni90  1  0.74156700  0.75000000  0.37829600  1
  Ni  Ni91  1  0.75843300  0.75000000  0.87829600  1
  Ni  Ni92  1  0.00199300  0.25000000  0.81085000  1
  Ni  Ni93  1  0.49800700  0.25000000  0.31085000  1
  Ni  Ni94  1  0.99800700  0.75000000  0.18915000  1
  Ni  Ni95  1  0.50199300  0.75000000  0.68915000  1
  Ni  Ni96  1  0.12103500  0.25000000  0.85714400  1
  Ni  Ni97  1  0.37896500  0.25000000  0.35714400  1
  Ni  Ni98  1  0.87896500  0.75000000  0.14285600  1
  Ni  Ni99  1  0.62103500  0.75000000  0.64285600  1
  Ni  Ni100  1  0.48538700  0.04017300  0.96931800  1
  Ni  Ni101  1  0.01461300  0.45982700  0.46931800  1
  Ni  Ni102  1  0.51461300  0.54017300  0.03068200  1
  Ni  Ni103  1  0.98538700  0.95982700  0.53068200  1
  Ni  Ni104  1  0.51461300  0.95982700  0.03068200  1
  Ni  Ni105  1  0.98538700  0.54017300  0.53068200  1
  Ni  Ni106  1  0.48538700  0.45982700  0.96931800  1
  Ni  Ni107  1  0.01461300  0.04017300  0.46931800  1
  Ni  Ni108  1  0.47976400  0.25000000  0.87997800  1
  Ni  Ni109  1  0.02023600  0.25000000  0.37997800  1
  Ni  Ni110  1  0.52023600  0.75000000  0.12002200  1
  Ni  Ni111  1  0.97976400  0.75000000  0.62002200  1
  Ni  Ni112  1  0.02153400  0.25000000  0.56805300  1
  Ni  Ni113  1  0.47846600  0.25000000  0.06805300  1
  Ni  Ni114  1  0.97846600  0.75000000  0.43194700  1
  Ni  Ni115  1  0.52153400  0.75000000  0.93194700  1
  Cu  Cu116  1  0.36697100  0.09232800  0.80464600  1
  Cu  Cu117  1  0.13302900  0.40767200  0.30464600  1
  Cu  Cu118  1  0.63302900  0.59232800  0.19535400  1
  Cu  Cu119  1  0.86697100  0.90767200  0.69535400  1
  Cu  Cu120  1  0.63302900  0.90767200  0.19535400  1
  Cu  Cu121  1  0.86697100  0.59232800  0.69535400  1
  Cu  Cu122  1  0.36697100  0.40767200  0.80464600  1
  Cu  Cu123  1  0.13302900  0.09232800  0.30464600  1
  Cu  Cu124  1  0.16653300  0.05800000  0.70871900  1
  Cu  Cu125  1  0.33346700  0.44200000  0.20871900  1
  Cu  Cu126  1  0.83346700  0.55800000  0.29128100  1
  Cu  Cu127  1  0.66653300  0.94200000  0.79128100  1
  Cu  Cu128  1  0.83346700  0.94200000  0.29128100  1
  Cu  Cu129  1  0.66653300  0.55800000  0.79128100  1
  Cu  Cu130  1  0.16653300  0.44200000  0.70871900  1
  Cu  Cu131  1  0.33346700  0.05800000  0.20871900  1
  Cu  Cu132  1  0.89052500  0.03185000  0.84187200  1
  Cu  Cu133  1  0.60947500  0.46815000  0.34187200  1
  Cu  Cu134  1  0.10947500  0.53185000  0.15812800  1
  Cu  Cu135  1  0.39052500  0.96815000  0.65812800  1
  Cu  Cu136  1  0.10947500  0.96815000  0.15812800  1
  Cu  Cu137  1  0.39052500  0.53185000  0.65812800  1
  Cu  Cu138  1  0.89052500  0.46815000  0.84187200  1
  Cu  Cu139  1  0.60947500  0.03185000  0.34187200  1
  Cu  Cu140  1  0.24499500  0.07101500  0.54108200  1
  Cu  Cu141  1  0.25500500  0.42898500  0.04108200  1
  Cu  Cu142  1  0.75500500  0.57101500  0.45891800  1
  Cu  Cu143  1  0.74499500  0.92898500  0.95891800  1
  Cu  Cu144  1  0.75500500  0.92898500  0.45891800  1
  Cu  Cu145  1  0.74499500  0.57101500  0.95891800  1
  Cu  Cu146  1  0.24499500  0.42898500  0.54108200  1
  Cu  Cu147  1  0.25500500  0.07101500  0.04108200  1
  Cu  Cu148  1  0.74871600  0.13743300  0.56968000  1
  Cu  Cu149  1  0.75128400  0.36256700  0.06968000  1
  Cu  Cu150  1  0.25128400  0.63743300  0.43032000  1
  Cu  Cu151  1  0.24871600  0.86256700  0.93032000  1
  Cu  Cu152  1  0.25128400  0.86256700  0.43032000  1
  Cu  Cu153  1  0.24871600  0.63743300  0.93032000  1
  Cu  Cu154  1  0.74871600  0.36256700  0.56968000  1
  Cu  Cu155  1  0.75128400  0.13743300  0.06968000  1
  Cu  Cu156  1  0.86045600  0.25000000  0.95028200  1
  Cu  Cu157  1  0.63954400  0.25000000  0.45028200  1
  Cu  Cu158  1  0.13954400  0.75000000  0.04971800  1
  Cu  Cu159  1  0.36045600  0.75000000  0.54971800  1
  Cu  Cu160  1  0.72820300  0.25000000  0.71944700  1
  Cu  Cu161  1  0.77179700  0.25000000  0.21944700  1
  Cu  Cu162  1  0.27179700  0.75000000  0.28055300  1
  Cu  Cu163  1  0.22820300  0.75000000  0.78055300  1
