# generated using pymatgen
data_CuNi3C10
_symmetry_space_group_name_H-M   'P 1'
_cell_length_a   5.99670177
_cell_length_b   5.99670177
_cell_length_c   9.80402400
_cell_angle_alpha   90.00000000
_cell_angle_beta   90.00000000
_cell_angle_gamma   119.99999741
_symmetry_Int_Tables_number   1
_chemical_formula_structural   CuNi3C10
_chemical_formula_sum   'Cu2 Ni6 C20'
_cell_volume   305.32327341
_cell_formula_units_Z   2
loop_
 _symmetry_equiv_pos_site_id
 _symmetry_equiv_pos_as_xyz
  1  'x, y, z'
loop_
 _atom_site_type_symbol
 _atom_site_label
 _atom_site_symmetry_multiplicity
 _atom_site_fract_x
 _atom_site_fract_y
 _atom_site_fract_z
 _atom_site_occupancy
  C  C0  1  0.33333300  0.66666700  0.90098100  1
  C  C1  1  0.00000000  0.00000000  0.99252400  1
  C  C2  1  0.00000000  0.00000000  0.49252400  1
  C  C3  1  0.66666700  0.33333300  0.40098100  1
  Ni  Ni4  1  0.17059900  0.82940100  0.21385700  1
  Ni  Ni5  1  0.17059900  0.34119900  0.21385700  1
  Ni  Ni6  1  0.65880100  0.82940100  0.21385700  1
  Ni  Ni7  1  0.34119900  0.17059900  0.71385700  1
  Ni  Ni8  1  0.82940100  0.65880100  0.71385700  1
  Ni  Ni9  1  0.82940100  0.17059900  0.71385700  1
  Cu  Cu10  1  0.33333300  0.66666700  0.48572000  1
  Cu  Cu11  1  0.66666700  0.33333300  0.98572000  1
  C  C12  1  0.17209300  0.82790700  0.59329100  1
  C  C13  1  0.03791600  0.51895800  0.34467900  1
  C  C14  1  0.33333300  0.66666700  0.10729100  1
  C  C15  1  0.00000000  0.00000000  0.30803700  1
  C  C16  1  0.00000000  0.00000000  0.80803700  1
  C  C17  1  0.17209300  0.34418600  0.59329100  1
  C  C18  1  0.48104200  0.96208400  0.34467900  1
  C  C19  1  0.48104200  0.51895800  0.34467900  1
  C  C20  1  0.34418600  0.17209300  0.09329100  1
  C  C21  1  0.65581400  0.82790700  0.59329100  1
  C  C22  1  0.51895800  0.48104200  0.84467900  1
  C  C23  1  0.51895800  0.03791600  0.84467900  1
  C  C24  1  0.66666700  0.33333300  0.60729100  1
  C  C25  1  0.82790700  0.65581400  0.09329100  1
  C  C26  1  0.96208400  0.48104200  0.84467900  1
  C  C27  1  0.82790700  0.17209300  0.09329100  1
