# generated using pymatgen
data_Cu5(Ni7C5)2
_symmetry_space_group_name_H-M   'P 1'
_cell_length_a   9.91080500
_cell_length_b   9.68531500
_cell_length_c   14.82065754
_cell_angle_alpha   49.45241733
_cell_angle_beta   90.00000000
_cell_angle_gamma   90.00000000
_symmetry_Int_Tables_number   1
_chemical_formula_structural   Cu5(Ni7C5)2
_chemical_formula_sum   'Cu20 Ni56 C40'
_cell_volume   1081.00416693
_cell_formula_units_Z   4
loop_
 _symmetry_equiv_pos_site_id
 _symmetry_equiv_pos_as_xyz
  1  'x, y, z'
loop_
 _atom_site_type_symbol
 _atom_site_label
 _atom_site_symmetry_multiplicity
 _atom_site_fract_x
 _atom_site_fract_y
 _atom_site_fract_z
 _atom_site_occupancy
  C  C0  1  0.54470200  0.12793000  0.37292300  1
  C  C1  1  0.95529800  0.12793000  0.87292300  1
  C  C2  1  0.45529800  0.87207000  0.62707700  1
  C  C3  1  0.04470200  0.87207000  0.12707700  1
  Ni  Ni4  1  0.50731500  0.48689400  0.19326700  1
  Ni  Ni5  1  0.99268500  0.48689400  0.69326700  1
  Ni  Ni6  1  0.49268500  0.51310600  0.80673300  1
  Ni  Ni7  1  0.00731500  0.51310600  0.30673300  1
  Ni  Ni8  1  0.49662800  0.38501600  0.13874000  1
  Ni  Ni9  1  0.00337200  0.38501600  0.63874000  1
  Ni  Ni10  1  0.50337200  0.61498400  0.86126000  1
  Ni  Ni11  1  0.99662800  0.61498400  0.36126000  1
  Ni  Ni12  1  0.36933900  0.37184100  0.21701100  1
  Ni  Ni13  1  0.13066100  0.37184100  0.71701100  1
  Ni  Ni14  1  0.63066100  0.62815900  0.78298900  1
  Ni  Ni15  1  0.86933900  0.62815900  0.28298900  1
  Ni  Ni16  1  0.77732300  0.02587400  0.35031500  1
  Ni  Ni17  1  0.72267700  0.02587400  0.85031500  1
  Ni  Ni18  1  0.22267700  0.97412600  0.64968500  1
  Ni  Ni19  1  0.27732300  0.97412600  0.14968500  1
  Ni  Ni20  1  0.68356600  0.10084900  0.23311300  1
  Ni  Ni21  1  0.81643400  0.10084900  0.73311300  1
  Ni  Ni22  1  0.31643400  0.89915100  0.76688700  1
  Ni  Ni23  1  0.18356600  0.89915100  0.26688700  1
  Ni  Ni24  1  0.76259100  0.24902200  0.23541100  1
  Ni  Ni25  1  0.73740900  0.24902200  0.73541100  1
  Ni  Ni26  1  0.23740900  0.75097800  0.76458900  1
  Ni  Ni27  1  0.26259100  0.75097800  0.26458900  1
  Ni  Ni28  1  0.43711300  0.04320800  0.24710200  1
  Ni  Ni29  1  0.06288700  0.04320800  0.74710200  1
  Ni  Ni30  1  0.56288700  0.95679200  0.75289800  1
  Ni  Ni31  1  0.93711300  0.95679200  0.25289800  1
  Ni  Ni32  1  0.33456800  0.97358600  0.35955400  1
  Ni  Ni33  1  0.16543200  0.97358600  0.85955400  1
  Ni  Ni34  1  0.66543200  0.02641400  0.64044600  1
  Ni  Ni35  1  0.83456800  0.02641400  0.14044600  1
  Ni  Ni36  1  0.47250500  0.85521700  0.38407800  1
  Ni  Ni37  1  0.02749500  0.85521700  0.88407800  1
  Ni  Ni38  1  0.52749500  0.14478300  0.61592200  1
  Ni  Ni39  1  0.97250500  0.14478300  0.11592200  1
  Ni  Ni40  1  0.87632700  0.70827200  0.68569400  1
  Ni  Ni41  1  0.62367300  0.70827200  0.18569400  1
  Ni  Ni42  1  0.12367300  0.29172800  0.31430600  1
  Ni  Ni43  1  0.37632700  0.29172800  0.81430600  1
  Ni  Ni44  1  0.85495800  0.66047200  0.81020600  1
  Ni  Ni45  1  0.64504200  0.66047200  0.31020600  1
  Ni  Ni46  1  0.14504200  0.33952800  0.18979400  1
  Ni  Ni47  1  0.35495800  0.33952800  0.68979400  1
  Ni  Ni48  1  0.75650200  0.23347200  0.42474400  1
  Ni  Ni49  1  0.74349800  0.23347200  0.92474400  1
  Ni  Ni50  1  0.24349800  0.76652800  0.57525600  1
  Ni  Ni51  1  0.25650200  0.76652800  0.07525600  1
  Ni  Ni52  1  0.65436200  0.40464600  0.34937300  1
  Ni  Ni53  1  0.84563800  0.40464600  0.84937300  1
  Ni  Ni54  1  0.34563800  0.59535400  0.65062700  1
  Ni  Ni55  1  0.15436200  0.59535400  0.15062700  1
  Ni  Ni56  1  0.37444100  0.21952800  0.45120100  1
  Ni  Ni57  1  0.12555900  0.21952800  0.95120100  1
  Ni  Ni58  1  0.62555900  0.78047200  0.54879900  1
  Ni  Ni59  1  0.87444100  0.78047200  0.04879900  1
  Cu  Cu60  1  0.47318600  0.37156700  0.21124400  1
  Cu  Cu61  1  0.02681400  0.37156700  0.71124400  1
  Cu  Cu62  1  0.52681400  0.62843300  0.78875600  1
  Cu  Cu63  1  0.97318600  0.62843300  0.28875600  1
  Cu  Cu64  1  0.71251100  0.12684400  0.28723400  1
  Cu  Cu65  1  0.78748900  0.12684400  0.78723400  1
  Cu  Cu66  1  0.28748900  0.87315600  0.71276600  1
  Cu  Cu67  1  0.21251100  0.87315600  0.21276600  1
  Cu  Cu68  1  0.43316100  0.98383900  0.33492200  1
  Cu  Cu69  1  0.06683900  0.98383900  0.83492200  1
  Cu  Cu70  1  0.56683900  0.01616100  0.66507800  1
  Cu  Cu71  1  0.93316100  0.01616100  0.16507800  1
  Cu  Cu72  1  0.95843400  0.14480300  0.54049000  1
  Cu  Cu73  1  0.54156600  0.14480300  0.04049000  1
  Cu  Cu74  1  0.04156600  0.85519700  0.45951000  1
  Cu  Cu75  1  0.45843400  0.85519700  0.95951000  1
  Cu  Cu76  1  0.69148300  0.56047300  0.51313900  1
  Cu  Cu77  1  0.80851700  0.56047300  0.01313900  1
  Cu  Cu78  1  0.30851700  0.43952700  0.48686100  1
  Cu  Cu79  1  0.19148300  0.43952700  0.98686100  1
  C  C80  1  0.83258700  0.62337700  0.76300900  1
  C  C81  1  0.66741300  0.62337700  0.26300900  1
  C  C82  1  0.16741300  0.37662300  0.23699100  1
  C  C83  1  0.33258700  0.37662300  0.73699100  1
  C  C84  1  0.65915800  0.26810700  0.40400900  1
  C  C85  1  0.84084200  0.26810700  0.90400900  1
  C  C86  1  0.34084200  0.73189300  0.59599100  1
  C  C87  1  0.15915800  0.73189300  0.09599100  1
  C  C88  1  0.39804800  0.10651300  0.46685500  1
  C  C89  1  0.10195200  0.10651300  0.96685500  1
  C  C90  1  0.60195200  0.89348700  0.53314500  1
  C  C91  1  0.89804800  0.89348700  0.03314500  1
  C  C92  1  0.92474100  0.20685700  0.43667700  1
  C  C93  1  0.57525900  0.20685700  0.93667700  1
  C  C94  1  0.07525900  0.79314300  0.56332300  1
  C  C95  1  0.42474100  0.79314300  0.06332300  1
  C  C96  1  0.07257100  0.18286200  0.55630100  1
  C  C97  1  0.42742900  0.18286200  0.05630100  1
  C  C98  1  0.92742900  0.81713800  0.44369900  1
  C  C99  1  0.57257100  0.81713800  0.94369900  1
  C  C100  1  0.87658800  0.04603500  0.62607000  1
  C  C101  1  0.62341200  0.04603500  0.12607000  1
  C  C102  1  0.12341200  0.95396500  0.37393000  1
  C  C103  1  0.37658800  0.95396500  0.87393000  1
  C  C104  1  0.66914200  0.54389200  0.60404800  1
  C  C105  1  0.83085800  0.54389200  0.10404800  1
  C  C106  1  0.33085800  0.45610800  0.39595200  1
  C  C107  1  0.16914200  0.45610800  0.89595200  1
  C  C108  1  0.63320100  0.68841000  0.41517000  1
  C  C109  1  0.86679900  0.68841000  0.91517000  1
  C  C110  1  0.36679900  0.31159000  0.58483000  1
  C  C111  1  0.13320100  0.31159000  0.08483000  1
  C  C112  1  0.76990200  0.45315800  0.51861500  1
  C  C113  1  0.73009800  0.45315800  0.01861500  1
  C  C114  1  0.23009800  0.54684200  0.48138500  1
  C  C115  1  0.26990200  0.54684200  0.98138500  1
