# generated using pymatgen
data_Cu3(NiC4)2
_symmetry_space_group_name_H-M   'P 1'
_cell_length_a   6.44330555
_cell_length_b   6.44330555
_cell_length_c   8.41461100
_cell_angle_alpha   90.00000000
_cell_angle_beta   90.00000000
_cell_angle_gamma   125.84682390
_symmetry_Int_Tables_number   1
_chemical_formula_structural   Cu3(NiC4)2
_chemical_formula_sum   'Cu6 Ni4 C16'
_cell_volume   283.17201356
_cell_formula_units_Z   2
loop_
 _symmetry_equiv_pos_site_id
 _symmetry_equiv_pos_as_xyz
  1  'x, y, z'
loop_
 _atom_site_type_symbol
 _atom_site_label
 _atom_site_symmetry_multiplicity
 _atom_site_fract_x
 _atom_site_fract_y
 _atom_site_fract_z
 _atom_site_occupancy
  Ni  Ni0  1  0.85881600  0.14118400  0.60615700  1
  Ni  Ni1  1  0.64118400  0.35881600  0.10615700  1
  Ni  Ni2  1  0.35881600  0.64118400  0.89384300  1
  Ni  Ni3  1  0.14118400  0.85881600  0.39384300  1
  Cu  Cu4  1  0.12720000  0.37280000  0.25000000  1
  Cu  Cu5  1  0.37280000  0.12720000  0.75000000  1
  Cu  Cu6  1  0.00000000  0.00000000  0.00000000  1
  Cu  Cu7  1  0.50000000  0.50000000  0.50000000  1
  Cu  Cu8  1  0.87280000  0.62720000  0.75000000  1
  Cu  Cu9  1  0.62720000  0.87280000  0.25000000  1
  C  C10  1  0.38359700  0.15399700  0.52556200  1
  C  C11  1  0.15399700  0.38359700  0.47443800  1
  C  C12  1  0.34600300  0.11640300  0.97443800  1
  C  C13  1  0.11640300  0.34600300  0.02556200  1
  C  C14  1  0.00253800  0.99746200  0.76435400  1
  C  C15  1  0.72909500  0.27090500  0.76220400  1
  C  C16  1  0.77090500  0.22909500  0.26220400  1
  C  C17  1  0.22909500  0.77090500  0.73779600  1
  C  C18  1  0.99746200  0.00253800  0.23564600  1
  C  C19  1  0.49746200  0.50253800  0.26435400  1
  C  C20  1  0.27090500  0.72909500  0.23779600  1
  C  C21  1  0.50253800  0.49746200  0.73564600  1
  C  C22  1  0.88359700  0.65399700  0.97443800  1
  C  C23  1  0.65399700  0.88359700  0.02556200  1
  C  C24  1  0.84600300  0.61640300  0.52556200  1
  C  C25  1  0.61640300  0.84600300  0.47443800  1
