# generated using pymatgen
data_Cu9NiC3
_symmetry_space_group_name_H-M   'P 1'
_cell_length_a   5.05356400
_cell_length_b   9.15780300
_cell_length_c   17.42972000
_cell_angle_alpha   90.00000000
_cell_angle_beta   90.00000000
_cell_angle_gamma   90.00000000
_symmetry_Int_Tables_number   1
_chemical_formula_structural   Cu9NiC3
_chemical_formula_sum   'Cu36 Ni4 C12'
_cell_volume   806.63948598
_cell_formula_units_Z   4
loop_
 _symmetry_equiv_pos_site_id
 _symmetry_equiv_pos_as_xyz
  1  'x, y, z'
loop_
 _atom_site_type_symbol
 _atom_site_label
 _atom_site_symmetry_multiplicity
 _atom_site_fract_x
 _atom_site_fract_y
 _atom_site_fract_z
 _atom_site_occupancy
  C  C0  1  0.74253500  0.65242600  0.19480300  1
  C  C1  1  0.75746500  0.34757400  0.69480300  1
  C  C2  1  0.24253500  0.84757400  0.80519700  1
  C  C3  1  0.25746500  0.15242600  0.30519700  1
  C  C4  1  0.22890100  0.61493900  0.07705100  1
  C  C5  1  0.27109900  0.38506100  0.57705100  1
  C  C6  1  0.72890100  0.88506100  0.92294900  1
  C  C7  1  0.77109900  0.11493900  0.42294900  1
  C  C8  1  0.25072700  0.75337700  0.30102000  1
  C  C9  1  0.24927300  0.24662300  0.80102000  1
  C  C10  1  0.75072700  0.74662300  0.69898000  1
  C  C11  1  0.74927300  0.25337700  0.19898000  1
  Ni  Ni12  1  0.74477400  0.59977700  0.45102100  1
  Ni  Ni13  1  0.75522600  0.40022300  0.95102100  1
  Ni  Ni14  1  0.24477400  0.90022300  0.54897900  1
  Ni  Ni15  1  0.25522600  0.09977700  0.04897900  1
  Cu  Cu16  1  0.22592000  0.77022700  0.06061700  1
  Cu  Cu17  1  0.27408000  0.22977300  0.56061700  1
  Cu  Cu18  1  0.72592000  0.72977300  0.93938300  1
  Cu  Cu19  1  0.77408000  0.27022700  0.43938300  1
  Cu  Cu20  1  0.44908000  0.57395800  0.13277400  1
  Cu  Cu21  1  0.05092000  0.42604200  0.63277400  1
  Cu  Cu22  1  0.94908000  0.92604200  0.86722600  1
  Cu  Cu23  1  0.55092000  0.07395800  0.36722600  1
  Cu  Cu24  1  0.25193400  0.52303300  0.00878700  1
  Cu  Cu25  1  0.24806600  0.47696700  0.50878700  1
  Cu  Cu26  1  0.75193400  0.97696700  0.99121300  1
  Cu  Cu27  1  0.74806600  0.02303300  0.49121300  1
  Cu  Cu28  1  0.98032700  0.56620200  0.11936100  1
  Cu  Cu29  1  0.51967300  0.43379800  0.61936100  1
  Cu  Cu30  1  0.48032700  0.93379800  0.88063900  1
  Cu  Cu31  1  0.01967300  0.06620200  0.38063900  1
  Cu  Cu32  1  0.03073200  0.65735700  0.26682700  1
  Cu  Cu33  1  0.46926800  0.34264300  0.76682700  1
  Cu  Cu34  1  0.53073200  0.84264300  0.73317300  1
  Cu  Cu35  1  0.96926800  0.15735700  0.23317300  1
  Cu  Cu36  1  0.74964400  0.39591100  0.23637000  1
  Cu  Cu37  1  0.75035600  0.60408900  0.73637000  1
  Cu  Cu38  1  0.24964400  0.10408900  0.76363000  1
  Cu  Cu39  1  0.25035600  0.89591100  0.26363000  1
  Cu  Cu40  1  0.23302200  0.75146200  0.38332700  1
  Cu  Cu41  1  0.26697800  0.24853800  0.88332700  1
  Cu  Cu42  1  0.73302200  0.74853800  0.61667300  1
  Cu  Cu43  1  0.76697800  0.25146200  0.11667300  1
  Cu  Cu44  1  0.49977600  0.66685300  0.27861200  1
  Cu  Cu45  1  0.00022400  0.33314700  0.77861200  1
  Cu  Cu46  1  0.99977600  0.83314700  0.72138800  1
  Cu  Cu47  1  0.50022400  0.16685300  0.22138800  1
  Cu  Cu48  1  0.74209400  0.81629300  0.16543000  1
  Cu  Cu49  1  0.75790600  0.18370700  0.66543000  1
  Cu  Cu50  1  0.24209400  0.68370700  0.83457000  1
  Cu  Cu51  1  0.25790600  0.31629300  0.33457000  1
