# generated using pymatgen
data_CuNiC4
_symmetry_space_group_name_H-M   'P 1'
_cell_length_a   8.04395300
_cell_length_b   11.74867000
_cell_length_c   13.01281500
_cell_angle_alpha   90.00000000
_cell_angle_beta   90.00000000
_cell_angle_gamma   90.00000000
_symmetry_Int_Tables_number   1
_chemical_formula_structural   CuNiC4
_chemical_formula_sum   'Cu16 Ni16 C64'
_cell_volume   1229.78583198
_cell_formula_units_Z   16
loop_
 _symmetry_equiv_pos_site_id
 _symmetry_equiv_pos_as_xyz
  1  'x, y, z'
loop_
 _atom_site_type_symbol
 _atom_site_label
 _atom_site_symmetry_multiplicity
 _atom_site_fract_x
 _atom_site_fract_y
 _atom_site_fract_z
 _atom_site_occupancy
  C  C0  1  0.41204400  0.83319500  0.02245000  1
  C  C1  1  0.91204400  0.33319500  0.47755000  1
  C  C2  1  0.41204400  0.66680500  0.52245000  1
  C  C3  1  0.91204400  0.16680500  0.97755000  1
  C  C4  1  0.87500900  0.66738000  0.20581500  1
  C  C5  1  0.37500900  0.16738000  0.29418500  1
  C  C6  1  0.87500900  0.83262000  0.70581500  1
  C  C7  1  0.37500900  0.33262000  0.79418500  1
  Ni  Ni8  1  0.34946100  0.43252100  0.01689400  1
  Ni  Ni9  1  0.33630400  0.29980500  0.03269300  1
  Ni  Ni10  1  0.79145800  0.41802300  0.18661700  1
  Ni  Ni11  1  0.60937800  0.46404300  0.19315500  1
  Ni  Ni12  1  0.10937800  0.96404300  0.30684500  1
  Ni  Ni13  1  0.29145800  0.91802300  0.31338300  1
  Ni  Ni14  1  0.83630400  0.79980500  0.46730700  1
  Ni  Ni15  1  0.84946100  0.93252100  0.48310600  1
  Ni  Ni16  1  0.34946100  0.06747900  0.51689400  1
  Ni  Ni17  1  0.33630400  0.20019500  0.53269300  1
  Ni  Ni18  1  0.79145800  0.08197700  0.68661700  1
  Ni  Ni19  1  0.60937800  0.03595700  0.69315500  1
  Ni  Ni20  1  0.10937800  0.53595700  0.80684500  1
  Ni  Ni21  1  0.29145800  0.58197700  0.81338300  1
  Ni  Ni22  1  0.83630400  0.70019500  0.96730700  1
  Ni  Ni23  1  0.84946100  0.56747900  0.98310600  1
  Cu  Cu24  1  0.53276800  0.08807200  0.09919300  1
  Cu  Cu25  1  0.19624400  0.60895400  0.11191100  1
  Cu  Cu26  1  0.88437600  0.92115800  0.17591400  1
  Cu  Cu27  1  0.05383300  0.24520200  0.20496500  1
  Cu  Cu28  1  0.55383300  0.74520200  0.29503500  1
  Cu  Cu29  1  0.38437600  0.42115800  0.32408600  1
  Cu  Cu30  1  0.69624400  0.10895400  0.38808900  1
  Cu  Cu31  1  0.03276800  0.58807200  0.40080700  1
  Cu  Cu32  1  0.53276800  0.41192800  0.59919300  1
  Cu  Cu33  1  0.19624400  0.89104600  0.61191100  1
  Cu  Cu34  1  0.88437600  0.57884200  0.67591400  1
  Cu  Cu35  1  0.05383300  0.25479800  0.70496500  1
  Cu  Cu36  1  0.55383300  0.75479800  0.79503500  1
  Cu  Cu37  1  0.38437600  0.07884200  0.82408600  1
  Cu  Cu38  1  0.69624400  0.39104600  0.88808900  1
  Cu  Cu39  1  0.03276800  0.91192800  0.90080700  1
  C  C40  1  0.84337400  0.64090200  0.01961800  1
  C  C41  1  0.60428300  0.05224300  0.02135300  1
  C  C42  1  0.32649800  0.58681400  0.06400100  1
  C  C43  1  0.83625100  0.85543200  0.10430800  1
  C  C44  1  0.15475800  0.71254500  0.13083600  1
  C  C45  1  0.55116000  0.19030000  0.13203200  1
  C  C46  1  0.09772800  0.53125200  0.14362900  1
  C  C47  1  0.16920900  0.20443700  0.14715900  1
  C  C48  1  0.43539100  0.02393800  0.15209100  1
  C  C49  1  0.92485900  0.28565300  0.16769300  1
  C  C50  1  0.89045900  0.02602500  0.16725600  1
  C  C51  1  0.72483400  0.48812200  0.18073600  1
  C  C52  1  0.57905200  0.74040000  0.19811500  1
  C  C53  1  0.42893700  0.37209500  0.23884600  1
  C  C54  1  0.92893700  0.87209500  0.26115400  1
  C  C55  1  0.07905200  0.24040000  0.30188500  1
  C  C56  1  0.22483400  0.98812200  0.31926400  1
  C  C57  1  0.39045900  0.52602500  0.33274400  1
  C  C58  1  0.42485900  0.78565300  0.33230700  1
  C  C59  1  0.93539100  0.52393800  0.34790900  1
  C  C60  1  0.66920900  0.70443700  0.35284100  1
  C  C61  1  0.59772800  0.03125200  0.35637100  1
  C  C62  1  0.05116000  0.69030000  0.36796800  1
  C  C63  1  0.65475800  0.21254500  0.36916400  1
  C  C64  1  0.33625100  0.35543200  0.39569200  1
  C  C65  1  0.82649800  0.08681400  0.43599900  1
  C  C66  1  0.10428300  0.55224300  0.47864700  1
  C  C67  1  0.34337400  0.14090200  0.48038200  1
  C  C68  1  0.84337400  0.85909800  0.51961800  1
  C  C69  1  0.60428300  0.44775700  0.52135300  1
  C  C70  1  0.32649800  0.91318600  0.56400100  1
  C  C71  1  0.83625100  0.64456800  0.60430800  1
  C  C72  1  0.15475800  0.78745500  0.63083600  1
  C  C73  1  0.55116000  0.30970000  0.63203200  1
  C  C74  1  0.09772800  0.96874800  0.64362900  1
  C  C75  1  0.16920900  0.29556300  0.64715900  1
  C  C76  1  0.43539100  0.47606200  0.65209100  1
  C  C77  1  0.92485900  0.21434700  0.66769300  1
  C  C78  1  0.89045900  0.47397500  0.66725600  1
  C  C79  1  0.72483400  0.01187800  0.68073600  1
  C  C80  1  0.57905200  0.75960000  0.69811500  1
  C  C81  1  0.42893700  0.12790500  0.73884600  1
  C  C82  1  0.92893700  0.62790500  0.76115400  1
  C  C83  1  0.07905200  0.25960000  0.80188500  1
  C  C84  1  0.22483400  0.51187800  0.81926400  1
  C  C85  1  0.39045900  0.97397500  0.83274400  1
  C  C86  1  0.42485900  0.71434700  0.83230700  1
  C  C87  1  0.93539100  0.97606200  0.84790900  1
  C  C88  1  0.66920900  0.79556300  0.85284100  1
  C  C89  1  0.59772800  0.46874800  0.85637100  1
  C  C90  1  0.05116000  0.80970000  0.86796800  1
  C  C91  1  0.65475800  0.28745500  0.86916400  1
  C  C92  1  0.33625100  0.14456800  0.89569200  1
  C  C93  1  0.82649800  0.41318600  0.93599900  1
  C  C94  1  0.10428300  0.94775700  0.97864700  1
  C  C95  1  0.34337400  0.35909800  0.98038200  1
