# generated using pymatgen
data_Cu5NiC30
_symmetry_space_group_name_H-M   'P 1'
_cell_length_a   3.13955900
_cell_length_b   8.24405500
_cell_length_c   14.29396137
_cell_angle_alpha   89.89862775
_cell_angle_beta   90.00000000
_cell_angle_gamma   90.00000000
_symmetry_Int_Tables_number   1
_chemical_formula_structural   Cu5NiC30
_chemical_formula_sum   'Cu5 Ni1 C30'
_cell_volume   369.96569310
_cell_formula_units_Z   1
loop_
 _symmetry_equiv_pos_site_id
 _symmetry_equiv_pos_as_xyz
  1  'x, y, z'
loop_
 _atom_site_type_symbol
 _atom_site_label
 _atom_site_symmetry_multiplicity
 _atom_site_fract_x
 _atom_site_fract_y
 _atom_site_fract_z
 _atom_site_occupancy
  C  C0  1  0.50000000  0.70728900  0.00905500  1
  C  C1  1  0.50000000  0.65979800  0.64165200  1
  C  C2  1  0.50000000  0.63500200  0.34876400  1
  C  C3  1  0.50000000  0.20612900  0.50689500  1
  C  C4  1  0.50000000  0.15905600  0.14266000  1
  C  C5  1  0.50000000  0.13377400  0.84966800  1
  Ni  Ni6  1  0.00000000  0.32601600  0.68616900  1
  Cu  Cu7  1  0.00000000  0.86278100  0.49568700  1
  Cu  Cu8  1  0.00000000  0.82408400  0.18434400  1
  Cu  Cu9  1  0.00000000  0.81186900  0.81995900  1
  Cu  Cu10  1  0.00000000  0.36447200  0.99661700  1
  Cu  Cu11  1  0.00000000  0.31247200  0.31989100  1
  C  C12  1  0.50000000  0.00016000  0.33303900  1
  C  C13  1  0.00000000  0.99983100  0.00008900  1
  C  C14  1  0.50000000  0.99776200  0.66656400  1
  C  C15  1  0.50000000  0.50234200  0.83494000  1
  C  C16  1  0.00000000  0.49902100  0.49867900  1
  C  C17  1  0.50000000  0.50018500  0.16669400  1
  C  C18  1  0.50000000  0.98746000  0.56933100  1
  C  C19  1  0.50000000  0.98183600  0.23612600  1
  C  C20  1  0.50000000  0.86360300  0.39085200  1
  C  C21  1  0.50000000  0.85721000  0.72063600  1
  C  C22  1  0.00000000  0.84798600  0.04278000  1
  C  C23  1  0.50000000  0.65612000  0.87480600  1
  C  C24  1  0.50000000  0.65174900  0.20933600  1
  C  C25  1  0.00000000  0.63786700  0.55441300  1
  C  C26  1  0.00000000  0.51417400  0.40162100  1
  C  C27  1  0.50000000  0.48876300  0.06954200  1
  C  C28  1  0.50000000  0.48681800  0.73770300  1
  C  C29  1  0.50000000  0.36399800  0.89122900  1
  C  C30  1  0.50000000  0.35991000  0.22087500  1
  C  C31  1  0.00000000  0.34604000  0.53969500  1
  C  C32  1  0.50000000  0.15475600  0.37224100  1
  C  C33  1  0.50000000  0.14816000  0.70999500  1
  C  C34  1  0.00000000  0.13958500  0.05459100  1
  C  C35  1  0.00000000  0.01192400  0.90286200  1
