# generated using pymatgen
data_Cu16NiC12
_symmetry_space_group_name_H-M   'P 1'
_cell_length_a   9.78172772
_cell_length_b   9.78172772
_cell_length_c   9.78172772
_cell_angle_alpha   60.00000000
_cell_angle_beta   60.00000000
_cell_angle_gamma   60.00000000
_symmetry_Int_Tables_number   1
_chemical_formula_structural   Cu16NiC12
_chemical_formula_sum   'Cu32 Ni2 C24'
_cell_volume   661.80754054
_cell_formula_units_Z   2
loop_
 _symmetry_equiv_pos_site_id
 _symmetry_equiv_pos_as_xyz
  1  'x, y, z'
loop_
 _atom_site_type_symbol
 _atom_site_label
 _atom_site_symmetry_multiplicity
 _atom_site_fract_x
 _atom_site_fract_y
 _atom_site_fract_z
 _atom_site_occupancy
  C  C0  1  0.21830700  0.21830700  0.78169300  1
  C  C1  1  0.78169300  0.21830700  0.21830700  1
  C  C2  1  0.21830700  0.78169300  0.21830700  1
  C  C3  1  0.78169300  0.21830700  0.78169300  1
  C  C4  1  0.46830700  0.46830700  0.03169300  1
  C  C5  1  0.03169300  0.46830700  0.46830700  1
  C  C6  1  0.21830700  0.78169300  0.78169300  1
  C  C7  1  0.78169300  0.78169300  0.21830700  1
  C  C8  1  0.46830700  0.03169300  0.46830700  1
  C  C9  1  0.03169300  0.46830700  0.03169300  1
  C  C10  1  0.03169300  0.03169300  0.46830700  1
  C  C11  1  0.46830700  0.03169300  0.03169300  1
  C  C12  1  0.62500000  0.12500000  0.62500000  1
  C  C13  1  0.12500000  0.62500000  0.62500000  1
  C  C14  1  0.62500000  0.62500000  0.12500000  1
  C  C15  1  0.62500000  0.62500000  0.62500000  1
  C  C16  1  0.41577600  0.41577600  0.41577600  1
  C  C17  1  0.75267200  0.41577600  0.41577600  1
  C  C18  1  0.41577600  0.41577600  0.75267200  1
  C  C19  1  0.41577600  0.75267200  0.41577600  1
  C  C20  1  0.83422400  0.49732800  0.83422400  1
  C  C21  1  0.83422400  0.83422400  0.49732800  1
  C  C22  1  0.49732800  0.83422400  0.83422400  1
  C  C23  1  0.83422400  0.83422400  0.83422400  1
  Ni  Ni24  1  0.25000000  0.25000000  0.25000000  1
  Ni  Ni25  1  0.00000000  0.00000000  0.00000000  1
  Cu  Cu26  1  0.18751000  0.18751000  0.18751000  1
  Cu  Cu27  1  0.18751000  0.18751000  0.43747000  1
  Cu  Cu28  1  0.43747000  0.18751000  0.18751000  1
  Cu  Cu29  1  0.18751000  0.43747000  0.18751000  1
  Cu  Cu30  1  0.44584500  0.25794700  0.53407700  1
  Cu  Cu31  1  0.53407700  0.44584500  0.25794700  1
  Cu  Cu32  1  0.76213100  0.25794700  0.44584500  1
  Cu  Cu33  1  0.25794700  0.53407700  0.44584500  1
  Cu  Cu34  1  0.53407700  0.25794700  0.76213100  1
  Cu  Cu35  1  0.25794700  0.44584500  0.76213100  1
  Cu  Cu36  1  0.76213100  0.53407700  0.25794700  1
  Cu  Cu37  1  0.76213100  0.44584500  0.53407700  1
  Cu  Cu38  1  0.44584500  0.76213100  0.25794700  1
  Cu  Cu39  1  0.44584500  0.53407700  0.76213100  1
  Cu  Cu40  1  0.25794700  0.76213100  0.53407700  1
  Cu  Cu41  1  0.71592300  0.48786900  0.80415500  1
  Cu  Cu42  1  0.53407700  0.76213100  0.44584500  1
  Cu  Cu43  1  0.99205300  0.48786900  0.71592300  1
  Cu  Cu44  1  0.80415500  0.71592300  0.48786900  1
  Cu  Cu45  1  0.80415500  0.48786900  0.99205300  1
  Cu  Cu46  1  0.48786900  0.80415500  0.71592300  1
  Cu  Cu47  1  0.48786900  0.71592300  0.99205300  1
  Cu  Cu48  1  0.99205300  0.80415500  0.48786900  1
  Cu  Cu49  1  0.71592300  0.99205300  0.48786900  1
  Cu  Cu50  1  0.99205300  0.71592300  0.80415500  1
  Cu  Cu51  1  0.48786900  0.99205300  0.80415500  1
  Cu  Cu52  1  0.71592300  0.80415500  0.99205300  1
  Cu  Cu53  1  0.80415500  0.99205300  0.71592300  1
  Cu  Cu54  1  0.06249000  0.81253000  0.06249000  1
  Cu  Cu55  1  0.06249000  0.06249000  0.81253000  1
  Cu  Cu56  1  0.81253000  0.06249000  0.06249000  1
  Cu  Cu57  1  0.06249000  0.06249000  0.06249000  1
