# generated using pymatgen
data_Cu2NiC9
_symmetry_space_group_name_H-M   'P 1'
_cell_length_a   7.33233300
_cell_length_b   9.01002100
_cell_length_c   10.87965854
_cell_angle_alpha   66.51242478
_cell_angle_beta   90.00000000
_cell_angle_gamma   90.00000000
_symmetry_Int_Tables_number   1
_chemical_formula_structural   Cu2NiC9
_chemical_formula_sum   'Cu8 Ni4 C36'
_cell_volume   659.20724619
_cell_formula_units_Z   4
loop_
 _symmetry_equiv_pos_site_id
 _symmetry_equiv_pos_as_xyz
  1  'x, y, z'
loop_
 _atom_site_type_symbol
 _atom_site_label
 _atom_site_symmetry_multiplicity
 _atom_site_fract_x
 _atom_site_fract_y
 _atom_site_fract_z
 _atom_site_occupancy
  C  C0  1  0.95834400  0.28070100  0.17887500  1
  C  C1  1  0.24500000  0.40874700  0.97284400  1
  C  C2  1  0.74500000  0.59125300  0.52715600  1
  C  C3  1  0.70537400  0.16442300  0.02998700  1
  C  C4  1  0.54165600  0.28070100  0.67887500  1
  C  C5  1  0.20537400  0.83557700  0.47001300  1
  C  C6  1  0.79462600  0.16442300  0.52998700  1
  C  C7  1  0.45834400  0.71929900  0.32112500  1
  C  C8  1  0.29462600  0.83557700  0.97001300  1
  C  C9  1  0.25500000  0.40874700  0.47284400  1
  C  C10  1  0.75500000  0.59125300  0.02715600  1
  C  C11  1  0.04165600  0.71929900  0.82112500  1
  Ni  Ni12  1  0.47100700  0.18516700  0.30303400  1
  Ni  Ni13  1  0.02899300  0.18516700  0.80303400  1
  Ni  Ni14  1  0.97100700  0.81483300  0.19696600  1
  Ni  Ni15  1  0.52899300  0.81483300  0.69696600  1
  Cu  Cu16  1  0.33210200  0.54227500  0.68147500  1
  Cu  Cu17  1  0.83210200  0.45772500  0.81852500  1
  Cu  Cu18  1  0.80460600  0.94239500  0.37624200  1
  Cu  Cu19  1  0.30460600  0.05760500  0.12375800  1
  Cu  Cu20  1  0.69539400  0.94239500  0.87624200  1
  Cu  Cu21  1  0.19539400  0.05760500  0.62375800  1
  Cu  Cu22  1  0.16789800  0.54227500  0.18147500  1
  Cu  Cu23  1  0.66789800  0.45772500  0.31852500  1
  C  C24  1  0.76720500  0.61146600  0.79363400  1
  C  C25  1  0.30706600  0.61481000  0.77356100  1
  C  C26  1  0.42859900  0.63201400  0.56499500  1
  C  C27  1  0.92859900  0.36798600  0.93500500  1
  C  C28  1  0.80706600  0.38519000  0.72643900  1
  C  C29  1  0.68977900  0.97296100  0.46469000  1
  C  C30  1  0.42092900  0.19160600  0.08401500  1
  C  C31  1  0.26720500  0.38853400  0.70636600  1
  C  C32  1  0.80081600  0.04353500  0.24178900  1
  C  C33  1  0.30081600  0.95646500  0.25821100  1
  C  C34  1  0.92092900  0.80839400  0.41598500  1
  C  C35  1  0.18977900  0.02703900  0.03531000  1
  C  C36  1  0.81022100  0.97296100  0.96469000  1
  C  C37  1  0.07907100  0.19160600  0.58401500  1
  C  C38  1  0.69918400  0.04353500  0.74178900  1
  C  C39  1  0.19918400  0.95646500  0.75821100  1
  C  C40  1  0.73279500  0.61146600  0.29363400  1
  C  C41  1  0.57907100  0.80839400  0.91598500  1
  C  C42  1  0.31022100  0.02703900  0.53531000  1
  C  C43  1  0.19293400  0.61481000  0.27356100  1
  C  C44  1  0.07140100  0.63201400  0.06499500  1
  C  C45  1  0.57140100  0.36798600  0.43500500  1
  C  C46  1  0.69293400  0.38519000  0.22643900  1
  C  C47  1  0.23279500  0.38853400  0.20636600  1
