# generated using pymatgen
data_Cu(NiC12)3
_symmetry_space_group_name_H-M   'P 1'
_cell_length_a   8.49806500
_cell_length_b   8.51006286
_cell_length_c   8.57857656
_cell_angle_alpha   61.60054747
_cell_angle_beta   62.31215242
_cell_angle_gamma   61.81406882
_symmetry_Int_Tables_number   1
_chemical_formula_structural   Cu(NiC12)3
_chemical_formula_sum   'Cu1 Ni3 C36'
_cell_volume   457.39336337
_cell_formula_units_Z   1
loop_
 _symmetry_equiv_pos_site_id
 _symmetry_equiv_pos_as_xyz
  1  'x, y, z'
loop_
 _atom_site_type_symbol
 _atom_site_label
 _atom_site_symmetry_multiplicity
 _atom_site_fract_x
 _atom_site_fract_y
 _atom_site_fract_z
 _atom_site_occupancy
  C  C0  1  0.98692100  0.00452700  0.99963100  1
  C  C1  1  0.24858400  0.65245900  0.85253500  1
  C  C2  1  0.52294500  0.49799300  0.49445000  1
  C  C3  1  0.77984700  0.33910800  0.14789900  1
  C  C4  1  0.33394800  0.16538600  0.77988400  1
  C  C5  1  0.15460800  0.77735000  0.34011200  1
  Ni  Ni6  1  0.85586100  0.86139600  0.85909700  1
  Ni  Ni7  1  0.64077900  0.64547600  0.63775300  1
  Ni  Ni8  1  0.35920100  0.35235900  0.34908300  1
  Cu  Cu9  1  0.14504700  0.14689900  0.14708600  1
  C  C10  1  0.94927600  0.54884100  0.25327300  1
  C  C11  1  0.55552800  0.24905800  0.94129800  1
  C  C12  1  0.25422400  0.95306200  0.54294200  1
  C  C13  1  0.74934700  0.03799100  0.45969900  1
  C  C14  1  0.45138400  0.74731100  0.03387300  1
  C  C15  1  0.03554100  0.46809400  0.75514500  1
  C  C16  1  0.86287500  0.51549500  0.70508000  1
  C  C17  1  0.68703000  0.87803500  0.49466600  1
  C  C18  1  0.94694700  0.73720500  0.08703200  1
  C  C19  1  0.46804800  0.69652000  0.87301400  1
  C  C20  1  0.75980600  0.56766700  0.41650600  1
  C  C21  1  0.96716500  0.39119500  0.20092800  1
  C  C22  1  0.74806200  0.08941800  0.91983300  1
  C  C23  1  0.55707700  0.42281100  0.75371500  1
  C  C24  1  0.41857400  0.75593700  0.56108800  1
  C  C25  1  0.79986800  0.00739500  0.62197900  1
  C  C26  1  0.91084100  0.05020200  0.27176700  1
  C  C27  1  0.62285800  0.78425500  0.00049100  1
  C  C28  1  0.39314300  0.19652100  0.96709000  1
  C  C29  1  0.11032700  0.92677800  0.73968500  1
  C  C30  1  0.19532200  0.97137200  0.39060100  1
  C  C31  1  0.59141800  0.23684600  0.43043200  1
  C  C32  1  0.42688900  0.58636200  0.23012700  1
  C  C33  1  0.26393600  0.91303300  0.05263300  1
  C  C34  1  0.02037300  0.62779600  0.80609400  1
  C  C35  1  0.22714500  0.43846100  0.60102000  1
  C  C36  1  0.53089300  0.30409200  0.09820900  1
  C  C37  1  0.04232800  0.27782000  0.91903400  1
  C  C38  1  0.31258200  0.11722700  0.50348000  1
  C  C39  1  0.11345500  0.50924300  0.31273400  1
