# generated using pymatgen
data_Cu3NiC
_symmetry_space_group_name_H-M   'P 1'
_cell_length_a   5.96923900
_cell_length_b   9.50472500
_cell_length_c   12.10426900
_cell_angle_alpha   90.00000000
_cell_angle_beta   90.00000000
_cell_angle_gamma   90.00000000
_symmetry_Int_Tables_number   1
_chemical_formula_structural   Cu3NiC
_chemical_formula_sum   'Cu12 Ni4 C4'
_cell_volume   686.74750524
_cell_formula_units_Z   4
loop_
 _symmetry_equiv_pos_site_id
 _symmetry_equiv_pos_as_xyz
  1  'x, y, z'
loop_
 _atom_site_type_symbol
 _atom_site_label
 _atom_site_symmetry_multiplicity
 _atom_site_fract_x
 _atom_site_fract_y
 _atom_site_fract_z
 _atom_site_occupancy
  Ni  Ni0  1  0.86804000  0.75930900  0.17927900  1
  Ni  Ni1  1  0.36804000  0.25930900  0.32072100  1
  Ni  Ni2  1  0.86804000  0.74069100  0.67927900  1
  Ni  Ni3  1  0.36804000  0.24069100  0.82072100  1
  Cu  Cu4  1  0.09558300  0.75023000  0.05731900  1
  Cu  Cu5  1  0.67286400  0.92331300  0.13721300  1
  Cu  Cu6  1  0.67450600  0.58949200  0.15393200  1
  Cu  Cu7  1  0.17450600  0.08949200  0.34606800  1
  Cu  Cu8  1  0.17286400  0.42331300  0.36278700  1
  Cu  Cu9  1  0.59558300  0.25023000  0.44268100  1
  Cu  Cu10  1  0.09558300  0.74977000  0.55731900  1
  Cu  Cu11  1  0.67286400  0.57668700  0.63721300  1
  Cu  Cu12  1  0.67450600  0.91050800  0.65393200  1
  Cu  Cu13  1  0.17450600  0.41050800  0.84606800  1
  Cu  Cu14  1  0.17286400  0.07668700  0.86278700  1
  Cu  Cu15  1  0.59558300  0.24977000  0.94268100  1
  C  C16  1  0.46297600  0.26879200  0.20868400  1
  C  C17  1  0.96297600  0.76879200  0.29131600  1
  C  C18  1  0.46297600  0.23120800  0.70868400  1
  C  C19  1  0.96297600  0.73120800  0.79131600  1
