# generated using pymatgen
data_Cu20Ni4C19
_symmetry_space_group_name_H-M   'P 1'
_cell_length_a   8.01163714
_cell_length_b   8.01163714
_cell_length_c   12.24834275
_cell_angle_alpha   77.68762397
_cell_angle_beta   77.68762397
_cell_angle_gamma   83.70992305
_symmetry_Int_Tables_number   1
_chemical_formula_structural   Cu20Ni4C19
_chemical_formula_sum   'Cu40 Ni8 C38'
_cell_volume   748.73377552
_cell_formula_units_Z   2
loop_
 _symmetry_equiv_pos_site_id
 _symmetry_equiv_pos_as_xyz
  1  'x, y, z'
loop_
 _atom_site_type_symbol
 _atom_site_label
 _atom_site_symmetry_multiplicity
 _atom_site_fract_x
 _atom_site_fract_y
 _atom_site_fract_z
 _atom_site_occupancy
  C  C0  1  0.00000000  0.00000000  0.50000000  1
  C  C1  1  0.00000000  0.00000000  0.00000000  1
  C  C2  1  0.84700800  0.15299200  0.75000000  1
  C  C3  1  0.15299200  0.84700800  0.25000000  1
  Ni  Ni4  1  0.25947900  0.56949300  0.71501000  1
  Ni  Ni5  1  0.43050700  0.74052100  0.78499000  1
  Ni  Ni6  1  0.74052100  0.43050700  0.28499000  1
  Ni  Ni7  1  0.56949300  0.25947900  0.21501000  1
  Ni  Ni8  1  0.35849000  0.44503800  0.89202200  1
  Ni  Ni9  1  0.55496200  0.64151000  0.60797800  1
  Ni  Ni10  1  0.64151000  0.55496200  0.10797800  1
  Ni  Ni11  1  0.44503800  0.35849000  0.39202200  1
  Cu  Cu12  1  0.49888700  0.98055800  0.77994700  1
  Cu  Cu13  1  0.01944200  0.50111300  0.72005300  1
  Cu  Cu14  1  0.50111300  0.01944200  0.22005300  1
  Cu  Cu15  1  0.98055800  0.49888700  0.27994700  1
  Cu  Cu16  1  0.34646700  0.42894400  0.53842400  1
  Cu  Cu17  1  0.57105600  0.65353300  0.96157600  1
  Cu  Cu18  1  0.65353300  0.57105600  0.46157600  1
  Cu  Cu19  1  0.42894400  0.34646700  0.03842400  1
  Cu  Cu20  1  0.08717100  0.31412400  0.53655600  1
  Cu  Cu21  1  0.68587600  0.91282900  0.96344400  1
  Cu  Cu22  1  0.91282900  0.68587600  0.46344400  1
  Cu  Cu23  1  0.31412400  0.08717100  0.03655600  1
  Cu  Cu24  1  0.34538000  0.92226800  0.98646800  1
  Cu  Cu25  1  0.07773200  0.65462000  0.51353200  1
  Cu  Cu26  1  0.65462000  0.07773200  0.01353200  1
  Cu  Cu27  1  0.92226800  0.34538000  0.48646800  1
  Cu  Cu28  1  0.17725000  0.22730600  0.80655800  1
  Cu  Cu29  1  0.77269400  0.82275000  0.69344200  1
  Cu  Cu30  1  0.82275000  0.77269400  0.19344200  1
  Cu  Cu31  1  0.22730600  0.17725000  0.30655800  1
  Cu  Cu32  1  0.96472400  0.78032000  0.70195800  1
  Cu  Cu33  1  0.21968000  0.03527600  0.79804200  1
  Cu  Cu34  1  0.03527600  0.21968000  0.29804200  1
  Cu  Cu35  1  0.78032000  0.96472400  0.20195800  1
  Cu  Cu36  1  0.27957000  0.88720000  0.61675100  1
  Cu  Cu37  1  0.11280000  0.72043000  0.88324900  1
  Cu  Cu38  1  0.72043000  0.11280000  0.38324900  1
  Cu  Cu39  1  0.88720000  0.27957000  0.11675100  1
  Cu  Cu40  1  0.32308500  0.06621200  0.53625100  1
  Cu  Cu41  1  0.93378800  0.67691500  0.96374900  1
  Cu  Cu42  1  0.67691500  0.93378800  0.46374900  1
  Cu  Cu43  1  0.06621200  0.32308500  0.03625100  1
  Cu  Cu44  1  0.71565200  0.48295100  0.83621500  1
  Cu  Cu45  1  0.51704900  0.28434800  0.66378500  1
  Cu  Cu46  1  0.28434800  0.51704900  0.16378500  1
  Cu  Cu47  1  0.48295100  0.71565200  0.33621500  1
  Cu  Cu48  1  0.62126500  0.14806300  0.59590000  1
  Cu  Cu49  1  0.85193700  0.37873500  0.90410000  1
  Cu  Cu50  1  0.37873500  0.85193700  0.40410000  1
  Cu  Cu51  1  0.14806300  0.62126500  0.09590000  1
  C  C52  1  0.26661100  0.73338900  0.75000000  1
  C  C53  1  0.73338900  0.26661100  0.25000000  1
  C  C54  1  0.26458100  0.42528200  0.81465900  1
  C  C55  1  0.57471800  0.73541900  0.68534100  1
  C  C56  1  0.73541900  0.57471800  0.18534100  1
  C  C57  1  0.42528200  0.26458100  0.31465900  1
  C  C58  1  0.41554800  0.54493800  0.62388700  1
  C  C59  1  0.45506200  0.58445200  0.87611300  1
  C  C60  1  0.58445200  0.45506200  0.37611300  1
  C  C61  1  0.54493800  0.41554800  0.12388700  1
  C  C62  1  0.10920300  0.56859700  0.66705800  1
  C  C63  1  0.43140300  0.89079700  0.83294200  1
  C  C64  1  0.89079700  0.43140300  0.33294200  1
  C  C65  1  0.56859700  0.10920300  0.16705800  1
  C  C66  1  0.35354500  0.32045100  0.99001400  1
  C  C67  1  0.67954900  0.64645500  0.50998600  1
  C  C68  1  0.64645500  0.67954900  0.00998600  1
  C  C69  1  0.32045100  0.35354500  0.49001400  1
  C  C70  1  0.72281700  0.03029900  0.94864000  1
  C  C71  1  0.96970100  0.27718300  0.55136000  1
  C  C72  1  0.27718300  0.96970100  0.05136000  1
  C  C73  1  0.03029900  0.72281700  0.44864000  1
  C  C74  1  0.87725100  0.87636300  0.69571100  1
  C  C75  1  0.12363700  0.12274900  0.80428900  1
  C  C76  1  0.12274900  0.12363700  0.30428900  1
  C  C77  1  0.87636300  0.87725100  0.19571100  1
  C  C78  1  0.04615200  0.71566500  0.96232000  1
  C  C79  1  0.28433500  0.95384800  0.53768000  1
  C  C80  1  0.95384800  0.28433500  0.03768000  1
  C  C81  1  0.71566500  0.04615200  0.46232000  1
  C  C82  1  0.58829900  0.17644800  0.67243400  1
  C  C83  1  0.82355200  0.41170100  0.82756600  1
  C  C84  1  0.41170100  0.82355200  0.32756600  1
  C  C85  1  0.17644800  0.58829900  0.17243400  1
