# generated using pymatgen
data_Cu3NiC14
_symmetry_space_group_name_H-M   'P 1'
_cell_length_a   9.01241058
_cell_length_b   9.01241058
_cell_length_c   9.01241045
_cell_angle_alpha   57.24201194
_cell_angle_beta   57.24201194
_cell_angle_gamma   57.24200800
_symmetry_Int_Tables_number   1
_chemical_formula_structural   Cu3NiC14
_chemical_formula_sum   'Cu6 Ni2 C28'
_cell_volume   484.73934559
_cell_formula_units_Z   2
loop_
 _symmetry_equiv_pos_site_id
 _symmetry_equiv_pos_as_xyz
  1  'x, y, z'
loop_
 _atom_site_type_symbol
 _atom_site_label
 _atom_site_symmetry_multiplicity
 _atom_site_fract_x
 _atom_site_fract_y
 _atom_site_fract_z
 _atom_site_occupancy
  C  C0  1  0.85296000  0.85296000  0.85296000  1
  C  C1  1  0.64881300  0.64881300  0.64881300  1
  C  C2  1  0.35111300  0.35111300  0.35111300  1
  C  C3  1  0.14690200  0.14690200  0.14690200  1
  Ni  Ni4  1  0.00286200  0.00286200  0.00286200  1
  Ni  Ni5  1  0.50141100  0.50141100  0.50141100  1
  Cu  Cu6  1  0.24962500  0.53481900  0.96229100  1
  Cu  Cu7  1  0.96229100  0.24962500  0.53481900  1
  Cu  Cu8  1  0.46195500  0.03864200  0.75065800  1
  Cu  Cu9  1  0.03864200  0.75065800  0.46195500  1
  Cu  Cu10  1  0.75065800  0.46195500  0.03864200  1
  Cu  Cu11  1  0.53481900  0.96229100  0.24962500  1
  C  C12  1  0.71042200  0.49601400  0.87456600  1
  C  C13  1  0.49601400  0.87456600  0.71042200  1
  C  C14  1  0.07770000  0.72027300  0.93859200  1
  C  C15  1  0.87456600  0.71042200  0.49601400  1
  C  C16  1  0.21588500  0.37227100  0.98940600  1
  C  C17  1  0.42313300  0.56354400  0.77871200  1
  C  C18  1  0.93859200  0.07770000  0.72027300  1
  C  C19  1  0.77871200  0.42313300  0.56354400  1
  C  C20  1  0.62629700  0.00560100  0.78914000  1
  C  C21  1  0.56354400  0.77871200  0.42313300  1
  C  C22  1  0.27755200  0.06037000  0.92298100  1
  C  C23  1  0.00560100  0.78914000  0.62629700  1
  C  C24  1  0.98940600  0.21588500  0.37227100  1
  C  C25  1  0.72027300  0.93859200  0.07770000  1
  C  C26  1  0.43884800  0.22152500  0.57611100  1
  C  C27  1  0.37227100  0.98940600  0.21588500  1
  C  C28  1  0.22152500  0.57611100  0.43884800  1
  C  C29  1  0.06037000  0.92298100  0.27755200  1
  C  C30  1  0.57611100  0.43884800  0.22152500  1
  C  C31  1  0.78914000  0.62629700  0.00560100  1
  C  C32  1  0.12773700  0.28835500  0.50291300  1
  C  C33  1  0.92298100  0.27755200  0.06037000  1
  C  C34  1  0.50291300  0.12773700  0.28835500  1
  C  C35  1  0.28835500  0.50291300  0.12773700  1
