# generated using pymatgen
data_Cu(NiC2)3
_symmetry_space_group_name_H-M   'P 1'
_cell_length_a   12.45404293
_cell_length_b   12.45404293
_cell_length_c   12.45404293
_cell_angle_alpha   107.83358703
_cell_angle_beta   107.83358703
_cell_angle_gamma   112.79860929
_symmetry_Int_Tables_number   1
_chemical_formula_structural   Cu(NiC2)3
_chemical_formula_sum   'Cu8 Ni24 C48'
_cell_volume   1483.20915411
_cell_formula_units_Z   8
loop_
 _symmetry_equiv_pos_site_id
 _symmetry_equiv_pos_as_xyz
  1  'x, y, z'
loop_
 _atom_site_type_symbol
 _atom_site_label
 _atom_site_symmetry_multiplicity
 _atom_site_fract_x
 _atom_site_fract_y
 _atom_site_fract_z
 _atom_site_occupancy
  C  C0  1  0.93595700  0.79798600  0.36981000  1
  C  C1  1  0.42817700  0.06614800  0.13019000  1
  C  C2  1  0.56614800  0.43595700  0.13797100  1
  C  C3  1  0.29798600  0.92817700  0.36202900  1
  C  C4  1  0.06404300  0.20201400  0.63019000  1
  C  C5  1  0.57182300  0.93385200  0.86981000  1
  C  C6  1  0.43385200  0.56404300  0.86202900  1
  C  C7  1  0.70201400  0.07182300  0.63797100  1
  C  C8  1  0.85484900  0.72451700  0.68674400  1
  C  C9  1  0.03777300  0.66810500  0.81325600  1
  C  C10  1  0.16810500  0.35484900  0.13033200  1
  C  C11  1  0.22451700  0.53777300  0.36966800  1
  C  C12  1  0.14515100  0.27548300  0.31325600  1
  C  C13  1  0.96222700  0.33189500  0.18674400  1
  C  C14  1  0.83189500  0.64515100  0.86966800  1
  C  C15  1  0.77548300  0.46222700  0.63033200  1
  Ni  Ni16  1  0.73552100  0.67790700  0.49906400  1
  Ni  Ni17  1  0.17884200  0.73645700  0.00093600  1
  Ni  Ni18  1  0.23645700  0.23552100  0.05761500  1
  Ni  Ni19  1  0.17790700  0.67884200  0.44238500  1
  Ni  Ni20  1  0.26447900  0.32209300  0.50093600  1
  Ni  Ni21  1  0.82115800  0.26354300  0.99906400  1
  Ni  Ni22  1  0.76354300  0.76447900  0.94238500  1
  Ni  Ni23  1  0.82209300  0.32115800  0.55761500  1
  Ni  Ni24  1  0.78679900  0.85289400  0.73125400  1
  Ni  Ni25  1  0.12164100  0.55554500  0.76874600  1
  Ni  Ni26  1  0.05554500  0.28679900  0.93390500  1
  Ni  Ni27  1  0.35289400  0.62164100  0.56609500  1
  Ni  Ni28  1  0.21320100  0.14710600  0.26874600  1
  Ni  Ni29  1  0.87835900  0.44445500  0.23125400  1
  Ni  Ni30  1  0.94445500  0.71320100  0.06609500  1
  Ni  Ni31  1  0.64710600  0.37835900  0.43390500  1
  Ni  Ni32  1  0.98722700  0.88120200  0.67396000  1
  Ni  Ni33  1  0.20724200  0.81326800  0.82604000  1
  Ni  Ni34  1  0.31326800  0.48722700  0.10602600  1
  Ni  Ni35  1  0.38120200  0.70724200  0.39397400  1
  Ni  Ni36  1  0.01277300  0.11879800  0.32604000  1
  Ni  Ni37  1  0.79275800  0.18673200  0.17396000  1
  Ni  Ni38  1  0.68673200  0.51277300  0.89397400  1
  Ni  Ni39  1  0.61879800  0.29275800  0.60602600  1
  Cu  Cu40  1  0.01020200  0.84551800  0.91013500  1
  Cu  Cu41  1  0.93538300  0.60006700  0.58986500  1
  Cu  Cu42  1  0.10006700  0.51020200  0.16468500  1
  Cu  Cu43  1  0.34551800  0.43538300  0.33531500  1
  Cu  Cu44  1  0.98979800  0.15448200  0.08986500  1
  Cu  Cu45  1  0.06461700  0.39993300  0.41013500  1
  Cu  Cu46  1  0.89993300  0.48979800  0.83531500  1
  Cu  Cu47  1  0.65448200  0.56461700  0.66468500  1
  C  C48  1  0.67342900  0.65562800  0.39406600  1
  C  C49  1  0.26156200  0.77936400  0.10593400  1
  C  C50  1  0.27936400  0.17342900  0.01780100  1
  C  C51  1  0.15562800  0.76156200  0.48219900  1
  C  C52  1  0.32657100  0.34437200  0.60593400  1
  C  C53  1  0.73843800  0.22063600  0.89406600  1
  C  C54  1  0.72063600  0.82657100  0.98219900  1
  C  C55  1  0.84437200  0.23843800  0.51780100  1
  C  C56  1  0.74590700  0.92257500  0.75399300  1
  C  C57  1  0.16858200  0.49191400  0.74600700  1
  C  C58  1  0.99191400  0.24590700  0.82333200  1
  C  C59  1  0.42257500  0.66858200  0.67666800  1
  C  C60  1  0.25409300  0.07742500  0.24600700  1
  C  C61  1  0.83141800  0.50808600  0.25399300  1
  C  C62  1  0.00808600  0.75409300  0.17666800  1
  C  C63  1  0.57742500  0.33141800  0.32333200  1
  C  C64  1  0.05385100  0.96660300  0.65937700  1
  C  C65  1  0.30722600  0.89447400  0.84062300  1
  C  C66  1  0.39447400  0.55385100  0.08724800  1
  C  C67  1  0.46660300  0.80722600  0.41275200  1
  C  C68  1  0.94614900  0.03339700  0.34062300  1
  C  C69  1  0.69277400  0.10552600  0.15937700  1
  C  C70  1  0.60552600  0.44614900  0.91275200  1
  C  C71  1  0.53339700  0.19277400  0.58724800  1
  C  C72  1  0.68914500  0.73113300  0.18080900  1
  C  C73  1  0.55032400  0.00833600  0.31919100  1
  C  C74  1  0.50833600  0.18914500  0.95801200  1
  C  C75  1  0.23113300  0.05032400  0.54198800  1
  C  C76  1  0.31085500  0.26886700  0.81919100  1
  C  C77  1  0.44967600  0.99166400  0.68080900  1
  C  C78  1  0.49166400  0.81085500  0.04198800  1
  C  C79  1  0.76886700  0.94967600  0.45801200  1
