# generated using pymatgen
data_CuNi6C7
_symmetry_space_group_name_H-M   'P 1'
_cell_length_a   7.26465700
_cell_length_b   5.75266200
_cell_length_c   7.27248068
_cell_angle_alpha   67.55430877
_cell_angle_beta   90.00000000
_cell_angle_gamma   90.00000000
_symmetry_Int_Tables_number   1
_chemical_formula_structural   CuNi6C7
_chemical_formula_sum   'Cu2 Ni12 C14'
_cell_volume   280.90028351
_cell_formula_units_Z   2
loop_
 _symmetry_equiv_pos_site_id
 _symmetry_equiv_pos_as_xyz
  1  'x, y, z'
loop_
 _atom_site_type_symbol
 _atom_site_label
 _atom_site_symmetry_multiplicity
 _atom_site_fract_x
 _atom_site_fract_y
 _atom_site_fract_z
 _atom_site_occupancy
  C  C0  1  0.25000000  0.63538300  0.80101900  1
  C  C1  1  0.75000000  0.36461700  0.19898100  1
  C  C2  1  0.00000000  0.00000000  0.00000000  1
  C  C3  1  0.50000000  0.00000000  0.00000000  1
  C  C4  1  0.56834600  0.42879300  0.69872600  1
  C  C5  1  0.93165400  0.42879300  0.69872600  1
  C  C6  1  0.09539100  0.29462500  0.63339000  1
  C  C7  1  0.40460900  0.29462500  0.63339000  1
  C  C8  1  0.59539100  0.70537500  0.36661000  1
  C  C9  1  0.90460900  0.70537500  0.36661000  1
  C  C10  1  0.06834600  0.57120700  0.30127400  1
  C  C11  1  0.43165400  0.57120700  0.30127400  1
  C  C12  1  0.75000000  0.85457900  0.69100400  1
  C  C13  1  0.25000000  0.14542100  0.30899600  1
  Ni  Ni14  1  0.58275000  0.80300500  0.82122100  1
  Ni  Ni15  1  0.91725000  0.80300500  0.82122100  1
  Ni  Ni16  1  0.04540400  0.32837300  0.74682900  1
  Ni  Ni17  1  0.45459600  0.32837300  0.74682900  1
  Ni  Ni18  1  0.75000000  0.66391200  0.59193300  1
  Ni  Ni19  1  0.25000000  0.88936400  0.45931000  1
  Ni  Ni20  1  0.75000000  0.11063600  0.54069000  1
  Ni  Ni21  1  0.25000000  0.33608800  0.40806700  1
  Ni  Ni22  1  0.95459600  0.67162700  0.25317100  1
  Ni  Ni23  1  0.54540400  0.67162700  0.25317100  1
  Ni  Ni24  1  0.08275000  0.19699500  0.17877900  1
  Ni  Ni25  1  0.41725000  0.19699500  0.17877900  1
  Cu  Cu26  1  0.25000000  0.88223300  0.97877500  1
  Cu  Cu27  1  0.75000000  0.11776700  0.02122500  1
