# generated using pymatgen
data_Cu5(NiC3)2
_symmetry_space_group_name_H-M   'P 1'
_cell_length_a   5.47239985
_cell_length_b   5.47239985
_cell_length_c   7.02730306
_cell_angle_alpha   82.23424779
_cell_angle_beta   82.23424779
_cell_angle_gamma   47.66472506
_symmetry_Int_Tables_number   1
_chemical_formula_structural   Cu5(NiC3)2
_chemical_formula_sum   'Cu5 Ni2 C6'
_cell_volume   153.85982136
_cell_formula_units_Z   1
loop_
 _symmetry_equiv_pos_site_id
 _symmetry_equiv_pos_as_xyz
  1  'x, y, z'
loop_
 _atom_site_type_symbol
 _atom_site_label
 _atom_site_symmetry_multiplicity
 _atom_site_fract_x
 _atom_site_fract_y
 _atom_site_fract_z
 _atom_site_occupancy
  C  C0  1  0.56472100  0.56472100  0.28389100  1
  C  C1  1  0.29185100  0.29185100  0.13851500  1
  C  C2  1  0.14586100  0.14586100  0.57713700  1
  C  C3  1  0.85413900  0.85413900  0.42286300  1
  C  C4  1  0.70814900  0.70814900  0.86148500  1
  C  C5  1  0.43527900  0.43527900  0.71610900  1
  Ni  Ni6  1  0.35760200  0.35760200  0.42548300  1
  Ni  Ni7  1  0.64239800  0.64239800  0.57451700  1
  Cu  Cu8  1  0.07768700  0.07768700  0.29645400  1
  Cu  Cu9  1  0.50000000  0.50000000  0.00000000  1
  Cu  Cu10  1  0.77301800  0.77301800  0.14543500  1
  Cu  Cu11  1  0.22698200  0.22698200  0.85456500  1
  Cu  Cu12  1  0.92231300  0.92231300  0.70354600  1
