# generated using pymatgen
data_CuNiC
_symmetry_space_group_name_H-M   'P 1'
_cell_length_a   3.10187900
_cell_length_b   4.74585600
_cell_length_c   18.93661900
_cell_angle_alpha   88.73311022
_cell_angle_beta   90.00000000
_cell_angle_gamma   90.00000000
_symmetry_Int_Tables_number   1
_chemical_formula_structural   CuNiC
_chemical_formula_sum   'Cu8 Ni8 C8'
_cell_volume   278.69917016
_cell_formula_units_Z   8
loop_
 _symmetry_equiv_pos_site_id
 _symmetry_equiv_pos_as_xyz
  1  'x, y, z'
loop_
 _atom_site_type_symbol
 _atom_site_label
 _atom_site_symmetry_multiplicity
 _atom_site_fract_x
 _atom_site_fract_y
 _atom_site_fract_z
 _atom_site_occupancy
  C  C0  1  0.00000000  0.91051800  0.24939800  1
  C  C1  1  0.00000000  0.02674000  0.00027500  1
  C  C2  1  0.00000000  0.98582100  0.50012700  1
  C  C3  1  0.00000000  0.04127900  0.75015300  1
  C  C4  1  0.50000000  0.47689900  0.12505100  1
  C  C5  1  0.50000000  0.59002700  0.87479300  1
  C  C6  1  0.50000000  0.45555700  0.37504800  1
  C  C7  1  0.50000000  0.51372900  0.62508700  1
  Ni  Ni8  1  0.50000000  0.75336700  0.19918300  1
  Ni  Ni9  1  0.50000000  0.83782100  0.95170000  1
  Ni  Ni10  1  0.00000000  0.75343300  0.82401300  1
  Ni  Ni11  1  0.00000000  0.70270200  0.57520800  1
  Ni  Ni12  1  0.00000000  0.65146300  0.32681300  1
  Ni  Ni13  1  0.00000000  0.26849500  0.42513500  1
  Ni  Ni14  1  0.00000000  0.32432600  0.67519600  1
  Ni  Ni15  1  0.50000000  0.20680700  0.05046100  1
  Cu  Cu16  1  0.50000000  0.77966600  0.45151200  1
  Cu  Cu17  1  0.50000000  0.83419900  0.70147200  1
  Cu  Cu18  1  0.00000000  0.69149200  0.07677700  1
  Cu  Cu19  1  0.00000000  0.26504900  0.17563000  1
  Cu  Cu20  1  0.00000000  0.34187800  0.92121300  1
  Cu  Cu21  1  0.50000000  0.15239700  0.29601600  1
  Cu  Cu22  1  0.50000000  0.19191600  0.54902400  1
  Cu  Cu23  1  0.50000000  0.24442100  0.80070900  1
