# generated using pymatgen
data_Cu2NiC7
_symmetry_space_group_name_H-M   'P 1'
_cell_length_a   6.53571243
_cell_length_b   6.53571243
_cell_length_c   5.33971549
_cell_angle_alpha   75.07796988
_cell_angle_beta   75.07796988
_cell_angle_gamma   83.48197401
_symmetry_Int_Tables_number   1
_chemical_formula_structural   Cu2NiC7
_chemical_formula_sum   'Cu4 Ni2 C14'
_cell_volume   212.69221563
_cell_formula_units_Z   2
loop_
 _symmetry_equiv_pos_site_id
 _symmetry_equiv_pos_as_xyz
  1  'x, y, z'
loop_
 _atom_site_type_symbol
 _atom_site_label
 _atom_site_symmetry_multiplicity
 _atom_site_fract_x
 _atom_site_fract_y
 _atom_site_fract_z
 _atom_site_occupancy
  C  C0  1  0.74099400  0.25900600  0.75000000  1
  C  C1  1  0.25900600  0.74099400  0.25000000  1
  Ni  Ni2  1  0.89963300  0.10036700  0.25000000  1
  Ni  Ni3  1  0.10036700  0.89963300  0.75000000  1
  Cu  Cu4  1  0.79383600  0.61467500  0.26536200  1
  Cu  Cu5  1  0.61467500  0.79383600  0.76536200  1
  Cu  Cu6  1  0.38532500  0.20616400  0.23463800  1
  Cu  Cu7  1  0.20616400  0.38532500  0.73463800  1
  C  C8  1  0.97115900  0.79723100  0.15122600  1
  C  C9  1  0.88752000  0.37143200  0.32760300  1
  C  C10  1  0.79723100  0.97115900  0.65122600  1
  C  C11  1  0.64061200  0.64774200  0.05726000  1
  C  C12  1  0.62856800  0.11248000  0.17239700  1
  C  C13  1  0.64774200  0.64061200  0.55726000  1
  C  C14  1  0.35225800  0.35938800  0.44274000  1
  C  C15  1  0.37143200  0.88752000  0.82760300  1
  C  C16  1  0.35938800  0.35225800  0.94274000  1
  C  C17  1  0.20276900  0.02884100  0.34877400  1
  C  C18  1  0.11248000  0.62856800  0.67239700  1
  C  C19  1  0.02884100  0.20276900  0.84877400  1
