# generated using pymatgen
data_Cu(NiC5)2
_symmetry_space_group_name_H-M   'P 1'
_cell_length_a   5.27957500
_cell_length_b   9.10872600
_cell_length_c   17.77205200
_cell_angle_alpha   90.00000000
_cell_angle_beta   90.00000000
_cell_angle_gamma   90.00000000
_symmetry_Int_Tables_number   1
_chemical_formula_structural   Cu(NiC5)2
_chemical_formula_sum   'Cu4 Ni8 C40'
_cell_volume   854.66157190
_cell_formula_units_Z   4
loop_
 _symmetry_equiv_pos_site_id
 _symmetry_equiv_pos_as_xyz
  1  'x, y, z'
loop_
 _atom_site_type_symbol
 _atom_site_label
 _atom_site_symmetry_multiplicity
 _atom_site_fract_x
 _atom_site_fract_y
 _atom_site_fract_z
 _atom_site_occupancy
  C  C0  1  0.25000000  0.08349600  0.30427500  1
  C  C1  1  0.25000000  0.41650400  0.80427500  1
  C  C2  1  0.75000000  0.91650400  0.69572500  1
  C  C3  1  0.75000000  0.58349600  0.19572500  1
  Ni  Ni4  1  0.25000000  0.48342000  0.30654100  1
  Ni  Ni5  1  0.25000000  0.01658000  0.80654100  1
  Ni  Ni6  1  0.75000000  0.51658000  0.69345900  1
  Ni  Ni7  1  0.75000000  0.98342000  0.19345900  1
  Ni  Ni8  1  0.75000000  0.13125600  0.42924700  1
  Ni  Ni9  1  0.75000000  0.36874400  0.92924700  1
  Ni  Ni10  1  0.25000000  0.86874400  0.57075300  1
  Ni  Ni11  1  0.25000000  0.63125600  0.07075300  1
  Cu  Cu12  1  0.25000000  0.14047000  0.04714000  1
  Cu  Cu13  1  0.25000000  0.35953000  0.54714000  1
  Cu  Cu14  1  0.75000000  0.85953000  0.95286000  1
  Cu  Cu15  1  0.75000000  0.64047000  0.45286000  1
  C  C16  1  0.97578700  0.07002700  0.22450000  1
  C  C17  1  0.52421300  0.42997300  0.72450000  1
  C  C18  1  0.47578700  0.92997300  0.77550000  1
  C  C19  1  0.02421300  0.57002700  0.27550000  1
  C  C20  1  0.02421300  0.92997300  0.77550000  1
  C  C21  1  0.47578700  0.57002700  0.27550000  1
  C  C22  1  0.52421300  0.07002700  0.22450000  1
  C  C23  1  0.97578700  0.42997300  0.72450000  1
  C  C24  1  0.97547200  0.16060400  0.37954600  1
  C  C25  1  0.52452800  0.33939600  0.87954600  1
  C  C26  1  0.47547200  0.83939600  0.62045400  1
  C  C27  1  0.02452800  0.66060400  0.12045400  1
  C  C28  1  0.02452800  0.83939600  0.62045400  1
  C  C29  1  0.47547200  0.66060400  0.12045400  1
  C  C30  1  0.52452800  0.16060400  0.37954600  1
  C  C31  1  0.97547200  0.33939600  0.87954600  1
  C  C32  1  0.25000000  0.33672900  0.27182900  1
  C  C33  1  0.25000000  0.16327100  0.77182900  1
  C  C34  1  0.75000000  0.66327100  0.72817100  1
  C  C35  1  0.75000000  0.83672900  0.22817100  1
  C  C36  1  0.25000000  0.48074500  0.04194100  1
  C  C37  1  0.25000000  0.01925500  0.54194100  1
  C  C38  1  0.75000000  0.51925500  0.95805900  1
  C  C39  1  0.75000000  0.98074500  0.45805900  1
  C  C40  1  0.75000000  0.23494800  0.49226200  1
  C  C41  1  0.75000000  0.26505200  0.99226200  1
  C  C42  1  0.25000000  0.76505200  0.50773800  1
  C  C43  1  0.25000000  0.73494800  0.00773800  1
  C  C44  1  0.25000000  0.48780400  0.38707700  1
  C  C45  1  0.25000000  0.01219600  0.88707700  1
  C  C46  1  0.75000000  0.51219600  0.61292300  1
  C  C47  1  0.75000000  0.98780400  0.11292300  1
  C  C48  1  0.75000000  0.40374300  0.16562200  1
  C  C49  1  0.75000000  0.09625700  0.66562200  1
  C  C50  1  0.25000000  0.59625700  0.83437800  1
  C  C51  1  0.25000000  0.90374300  0.33437800  1
