# generated using pymatgen
data_Cu4NiC2
_symmetry_space_group_name_H-M   'P 1'
_cell_length_a   11.63947600
_cell_length_b   7.72703900
_cell_length_c   8.92399793
_cell_angle_alpha   67.13129277
_cell_angle_beta   90.00000000
_cell_angle_gamma   90.00000000
_symmetry_Int_Tables_number   1
_chemical_formula_structural   Cu4NiC2
_chemical_formula_sum   'Cu32 Ni8 C16'
_cell_volume   739.52551415
_cell_formula_units_Z   8
loop_
 _symmetry_equiv_pos_site_id
 _symmetry_equiv_pos_as_xyz
  1  'x, y, z'
loop_
 _atom_site_type_symbol
 _atom_site_label
 _atom_site_symmetry_multiplicity
 _atom_site_fract_x
 _atom_site_fract_y
 _atom_site_fract_z
 _atom_site_occupancy
  C  C0  1  0.74939900  0.13744000  0.44570600  1
  C  C1  1  0.24939900  0.86256000  0.05429400  1
  C  C2  1  0.25060100  0.86256000  0.55429400  1
  C  C3  1  0.75060100  0.13744000  0.94570600  1
  C  C4  1  0.91786700  0.76325500  0.99337400  1
  C  C5  1  0.41786700  0.23674500  0.50662600  1
  C  C6  1  0.08213300  0.23674500  0.00662600  1
  C  C7  1  0.58213300  0.76325500  0.49337400  1
  C  C8  1  0.92712100  0.63876700  0.70407500  1
  C  C9  1  0.42712100  0.36123300  0.79592500  1
  C  C10  1  0.07287900  0.36123300  0.29592500  1
  C  C11  1  0.57287900  0.63876700  0.20407500  1
  C  C12  1  0.88417800  0.74533000  0.35275800  1
  C  C13  1  0.38417800  0.25467000  0.14724200  1
  C  C14  1  0.11582200  0.25467000  0.64724200  1
  C  C15  1  0.61582200  0.74533000  0.85275800  1
  Ni  Ni16  1  0.99620200  0.93258700  0.76419300  1
  Ni  Ni17  1  0.49620200  0.06741300  0.73580700  1
  Ni  Ni18  1  0.00379800  0.06741300  0.23580700  1
  Ni  Ni19  1  0.50379800  0.93258700  0.26419300  1
  Ni  Ni20  1  0.79128700  0.56569700  0.56786100  1
  Ni  Ni21  1  0.29128700  0.43430300  0.93213900  1
  Ni  Ni22  1  0.20871300  0.43430300  0.43213900  1
  Ni  Ni23  1  0.70871300  0.56569700  0.06786100  1
  Cu  Cu24  1  0.10478600  0.03872000  0.74232800  1
  Cu  Cu25  1  0.60478600  0.96128000  0.75767200  1
  Cu  Cu26  1  0.89521400  0.96128000  0.25767200  1
  Cu  Cu27  1  0.39521400  0.03872000  0.24232800  1
  Cu  Cu28  1  0.89285000  0.04692300  0.72621600  1
  Cu  Cu29  1  0.39285000  0.95307700  0.77378400  1
  Cu  Cu30  1  0.10715000  0.95307700  0.27378400  1
  Cu  Cu31  1  0.60715000  0.04692300  0.22621600  1
  Cu  Cu32  1  0.00291300  0.80186300  0.67896400  1
  Cu  Cu33  1  0.50291300  0.19813700  0.82103600  1
  Cu  Cu34  1  0.99708700  0.19813700  0.32103600  1
  Cu  Cu35  1  0.49708700  0.80186300  0.17896400  1
  Cu  Cu36  1  0.99794200  0.80735800  0.95448800  1
  Cu  Cu37  1  0.49794200  0.19264200  0.54551200  1
  Cu  Cu38  1  0.00205800  0.19264200  0.04551200  1
  Cu  Cu39  1  0.50205800  0.80735800  0.45448800  1
  Cu  Cu40  1  0.72256800  0.73330000  0.53918600  1
  Cu  Cu41  1  0.22256800  0.26670000  0.96081400  1
  Cu  Cu42  1  0.27743200  0.26670000  0.46081400  1
  Cu  Cu43  1  0.77743200  0.73330000  0.03918600  1
  Cu  Cu44  1  0.73105600  0.39275200  0.59961600  1
  Cu  Cu45  1  0.23105600  0.60724800  0.90038400  1
  Cu  Cu46  1  0.26894400  0.60724800  0.40038400  1
  Cu  Cu47  1  0.76894400  0.39275200  0.09961600  1
  Cu  Cu48  1  0.87189500  0.52735200  0.71576700  1
  Cu  Cu49  1  0.37189500  0.47264800  0.78423300  1
  Cu  Cu50  1  0.12810500  0.47264800  0.28423300  1
  Cu  Cu51  1  0.62810500  0.52735200  0.21576700  1
  Cu  Cu52  1  0.87195200  0.60345100  0.41920700  1
  Cu  Cu53  1  0.37195200  0.39654900  0.08079300  1
  Cu  Cu54  1  0.12804800  0.39654900  0.58079300  1
  Cu  Cu55  1  0.62804800  0.60345100  0.91920700  1
