# generated using pymatgen
data_Cu4NiC5
_symmetry_space_group_name_H-M   'P 1'
_cell_length_a   6.80243300
_cell_length_b   8.00703600
_cell_length_c   6.80243300
_cell_angle_alpha   89.99999158
_cell_angle_beta   90.00000000
_cell_angle_gamma   90.00000000
_symmetry_Int_Tables_number   1
_chemical_formula_structural   Cu4NiC5
_chemical_formula_sum   'Cu16 Ni4 C20'
_cell_volume   370.51033525
_cell_formula_units_Z   4
loop_
 _symmetry_equiv_pos_site_id
 _symmetry_equiv_pos_as_xyz
  1  'x, y, z'
loop_
 _atom_site_type_symbol
 _atom_site_label
 _atom_site_symmetry_multiplicity
 _atom_site_fract_x
 _atom_site_fract_y
 _atom_site_fract_z
 _atom_site_occupancy
  C  C0  1  0.29204800  0.23396500  0.09073800  1
  C  C1  1  0.79204800  0.48396500  0.59073800  1
  C  C2  1  0.29204800  0.73396500  0.09073800  1
  C  C3  1  0.79204800  0.98396500  0.59073800  1
  C  C4  1  0.40926200  0.98396500  0.79204800  1
  C  C5  1  0.90926200  0.23396500  0.29204800  1
  C  C6  1  0.40926200  0.48396500  0.79204800  1
  C  C7  1  0.90926200  0.73396500  0.29204800  1
  C  C8  1  0.59073800  0.48396500  0.20795200  1
  C  C9  1  0.09073800  0.73396500  0.70795200  1
  C  C10  1  0.59073800  0.98396500  0.20795200  1
  C  C11  1  0.09073800  0.23396500  0.70795200  1
  C  C12  1  0.70795200  0.23396500  0.90926200  1
  C  C13  1  0.20795200  0.48396500  0.40926200  1
  C  C14  1  0.70795200  0.73396500  0.90926200  1
  C  C15  1  0.20795200  0.98396500  0.40926200  1
  C  C16  1  0.00000000  0.48417800  0.00000000  1
  C  C17  1  0.50000000  0.73417800  0.50000000  1
  C  C18  1  0.00000000  0.98417800  0.00000000  1
  C  C19  1  0.50000000  0.23417800  0.50000000  1
  Ni  Ni20  1  0.00000000  0.23406400  0.00000000  1
  Ni  Ni21  1  0.50000000  0.48406400  0.50000000  1
  Ni  Ni22  1  0.00000000  0.73406400  0.00000000  1
  Ni  Ni23  1  0.50000000  0.98406400  0.50000000  1
  Cu  Cu24  1  0.30915700  0.48397500  0.10288700  1
  Cu  Cu25  1  0.80915700  0.73397500  0.60288700  1
  Cu  Cu26  1  0.30915700  0.98397500  0.10288700  1
  Cu  Cu27  1  0.80915700  0.23397500  0.60288700  1
  Cu  Cu28  1  0.39711300  0.23397500  0.80915700  1
  Cu  Cu29  1  0.89711300  0.48397500  0.30915700  1
  Cu  Cu30  1  0.39711300  0.73397500  0.80915700  1
  Cu  Cu31  1  0.89711300  0.98397500  0.30915700  1
  Cu  Cu32  1  0.60288700  0.23397500  0.19084300  1
  Cu  Cu33  1  0.10288700  0.48397500  0.69084300  1
  Cu  Cu34  1  0.60288700  0.73397500  0.19084300  1
  Cu  Cu35  1  0.10288700  0.98397500  0.69084300  1
  Cu  Cu36  1  0.69084300  0.98397500  0.89711300  1
  Cu  Cu37  1  0.19084300  0.23397500  0.39711300  1
  Cu  Cu38  1  0.69084300  0.48397500  0.89711300  1
  Cu  Cu39  1  0.19084300  0.73397500  0.39711300  1
