# generated using pymatgen
data_Cu3Ni5C14
_symmetry_space_group_name_H-M   'P 1'
_cell_length_a   11.13676461
_cell_length_b   11.15882142
_cell_length_c   11.15887156
_cell_angle_alpha   109.73105760
_cell_angle_beta   109.12966861
_cell_angle_gamma   109.31840115
_symmetry_Int_Tables_number   1
_chemical_formula_structural   Cu3Ni5C14
_chemical_formula_sum   'Cu12 Ni20 C56'
_cell_volume   1070.57492569
_cell_formula_units_Z   4
loop_
 _symmetry_equiv_pos_site_id
 _symmetry_equiv_pos_as_xyz
  1  'x, y, z'
loop_
 _atom_site_type_symbol
 _atom_site_label
 _atom_site_symmetry_multiplicity
 _atom_site_fract_x
 _atom_site_fract_y
 _atom_site_fract_z
 _atom_site_occupancy
  Ni  Ni0  1  0.16836400  0.90552500  0.88802600  1
  Ni  Ni1  1  0.05923400  0.11081800  0.81185000  1
  Ni  Ni2  1  0.25500600  0.68422500  0.78975600  1
  Ni  Ni3  1  0.21229500  0.74657200  0.32314900  1
  Ni  Ni4  1  0.28496300  0.61213300  0.52651600  1
  Ni  Ni5  1  0.32988800  0.22140700  0.73509800  1
  Ni  Ni6  1  0.57368900  0.75332200  0.96079300  1
  Ni  Ni7  1  0.24323300  0.03795300  0.42852600  1
  Ni  Ni8  1  0.47509300  0.71224500  0.38750200  1
  Ni  Ni9  1  0.52441000  0.28415600  0.61180400  1
  Ni  Ni10  1  0.60518400  0.52618700  0.28497600  1
  Ni  Ni11  1  0.42702000  0.24594200  0.03975500  1
  Ni  Ni12  1  0.67577000  0.78836300  0.25654500  1
  Ni  Ni13  1  0.70566000  0.38830600  0.46083100  1
  Ni  Ni14  1  0.80278400  0.25197300  0.69029900  1
  Ni  Ni15  1  0.89327100  0.18236200  0.93185600  1
  Ni  Ni16  1  0.97194200  0.58401700  0.75937500  1
  Ni  Ni17  1  0.74606600  0.31863400  0.21027800  1
  Ni  Ni18  1  0.92878200  0.88925000  0.18304100  1
  Ni  Ni19  1  0.82129500  0.07399000  0.11188300  1
  Cu  Cu20  1  0.24922100  0.88590000  0.63235300  1
  Cu  Cu21  1  0.13063500  0.37750500  0.75109200  1
  Cu  Cu22  1  0.13103200  0.25894100  0.38083300  1
  Cu  Cu23  1  0.62503000  0.87273500  0.74367800  1
  Cu  Cu24  1  0.24261000  0.38030800  0.13329400  1
  Cu  Cu25  1  0.36062500  0.74928800  0.11653900  1
  Cu  Cu26  1  0.36977800  0.12133800  0.24540600  1
  Cu  Cu27  1  0.63148300  0.25064800  0.88143800  1
  Cu  Cu28  1  0.75093600  0.61939000  0.86914100  1
  Cu  Cu29  1  0.86412100  0.75528600  0.61625400  1
  Cu  Cu30  1  0.75100600  0.12200700  0.37499700  1
  Cu  Cu31  1  0.88310900  0.62876700  0.25127900  1
  C  C32  1  0.99779400  0.50012300  0.49582800  1
  C  C33  1  0.99428000  0.00091100  0.49923700  1
  C  C34  1  0.99847800  0.50308800  0.00331500  1
  C  C35  1  0.49983100  0.49699800  0.50626100  1
  C  C36  1  0.50713100  0.00086700  0.50196800  1
  C  C37  1  0.00230400  0.99422200  0.00407100  1
  C  C38  1  0.49861300  0.50110800  0.99694300  1
  C  C39  1  0.50363200  0.00004700  0.00021900  1
  C  C40  1  0.08113600  0.97248900  0.67328600  1
  C  C41  1  0.11533700  0.58073700  0.90717900  1
  C  C42  1  0.02902700  0.32389200  0.91285400  1
  C  C43  1  0.07921100  0.69876900  0.68005200  1
  C  C44  1  0.08632400  0.88457000  0.41249600  1
  C  C45  1  0.09884700  0.62710800  0.42762300  1
  C  C46  1  0.17479100  0.48620200  0.59279000  1
  C  C47  1  0.41655200  0.82679500  0.79859800  1
  C  C48  1  0.30295300  0.32220400  0.91270700  1
  C  C49  1  0.38718000  0.59156900  0.91598700  1
  C  C50  1  0.01818300  0.19173200  0.11362800  1
  C  C51  1  0.32633800  0.92670100  0.31654900  1
  C  C52  1  0.17178300  0.19067500  0.57397100  1
  C  C53  1  0.20509600  0.59233200  0.17342500  1
  C  C54  1  0.40904900  0.82133300  0.52054200  1
  C  C55  1  0.32738700  0.90659500  0.01946800  1
  C  C56  1  0.30292600  0.47449500  0.38853400  1
  C  C57  1  0.11445700  0.02912100  0.20721000  1
  C  C58  1  0.53400500  0.62013400  0.70268600  1
  C  C59  1  0.41595000  0.08890500  0.88804400  1
  C  C60  1  0.52635200  0.40207500  0.82768600  1
  C  C61  1  0.38366900  0.29269900  0.46863300  1
  C  C62  1  0.19812500  0.10838300  0.02034500  1
  C  C63  1  0.57464900  0.90146600  0.37699000  1
  C  C64  1  0.41577700  0.09712100  0.61761800  1
  C  C65  1  0.80581300  0.88250800  0.98687000  1
  C  C66  1  0.61238300  0.69197400  0.51972500  1
  C  C67  1  0.48067400  0.59453100  0.18003400  1
  C  C68  1  0.47085300  0.37889300  0.29726200  1
  C  C69  1  0.59392800  0.91794900  0.11511700  1
  C  C70  1  0.88550400  0.98496200  0.81280700  1
  C  C71  1  0.67875500  0.08870200  0.97529400  1
  C  C72  1  0.69955600  0.52212800  0.61360100  1
  C  C73  1  0.60101200  0.18005100  0.48735800  1
  C  C74  1  0.80479100  0.41719100  0.82401000  1
  C  C75  1  0.67546800  0.09023800  0.70651000  1
  C  C76  1  0.97218300  0.79851700  0.87351600  1
  C  C77  1  0.82552600  0.79381300  0.40641700  1
  C  C78  1  0.61452300  0.42085900  0.09996600  1
  C  C79  1  0.69394200  0.67835200  0.07906100  1
  C  C80  1  0.58288200  0.17419100  0.19972800  1
  C  C81  1  0.81772200  0.51611200  0.39934000  1
  C  C82  1  0.90437400  0.38986100  0.58370400  1
  C  C83  1  0.92186400  0.12382800  0.59363600  1
  C  C84  1  0.90971800  0.29657100  0.32639400  1
  C  C85  1  0.88283000  0.40830600  0.08000000  1
  C  C86  1  0.97218600  0.67209300  0.08995900  1
  C  C87  1  0.90313100  0.02064000  0.32292500  1
