# generated using pymatgen
data_Cu2NiC5
_symmetry_space_group_name_H-M   'P 1'
_cell_length_a   7.30734600
_cell_length_b   7.30734600
_cell_length_c   18.25229100
_cell_angle_alpha   90.00000000
_cell_angle_beta   90.00000000
_cell_angle_gamma   90.00000000
_symmetry_Int_Tables_number   1
_chemical_formula_structural   Cu2NiC5
_chemical_formula_sum   'Cu24 Ni12 C60'
_cell_volume   974.62315976
_cell_formula_units_Z   12
loop_
 _symmetry_equiv_pos_site_id
 _symmetry_equiv_pos_as_xyz
  1  'x, y, z'
loop_
 _atom_site_type_symbol
 _atom_site_label
 _atom_site_symmetry_multiplicity
 _atom_site_fract_x
 _atom_site_fract_y
 _atom_site_fract_z
 _atom_site_occupancy
  C  C0  1  0.38441200  0.56944800  0.67422000  1
  C  C1  1  0.61558800  0.43055200  0.17422000  1
  C  C2  1  0.06944800  0.11558800  0.42422000  1
  C  C3  1  0.93055200  0.88441200  0.92422000  1
  C  C4  1  0.43055200  0.61558800  0.82578000  1
  C  C5  1  0.56944800  0.38441200  0.32578000  1
  C  C6  1  0.11558800  0.06944800  0.57578000  1
  C  C7  1  0.88441200  0.93055200  0.07578000  1
  C  C8  1  0.80173300  0.17384900  0.83547200  1
  C  C9  1  0.19826700  0.82615100  0.33547200  1
  C  C10  1  0.67384900  0.69826700  0.58547200  1
  C  C11  1  0.32615100  0.30173300  0.08547200  1
  C  C12  1  0.82615100  0.19826700  0.66452800  1
  C  C13  1  0.17384900  0.80173300  0.16452800  1
  C  C14  1  0.69826700  0.67384900  0.41452800  1
  C  C15  1  0.30173300  0.32615100  0.91452800  1
  C  C16  1  0.66054500  0.30075900  0.89622600  1
  C  C17  1  0.33945500  0.69924100  0.39622600  1
  C  C18  1  0.80075900  0.83945500  0.64622600  1
  C  C19  1  0.19924100  0.16054500  0.14622600  1
  C  C20  1  0.69924100  0.33945500  0.60377400  1
  C  C21  1  0.30075900  0.66054500  0.10377400  1
  C  C22  1  0.83945500  0.80075900  0.35377400  1
  C  C23  1  0.16054500  0.19924100  0.85377400  1
  C  C24  1  0.73831600  0.73971100  0.91928500  1
  C  C25  1  0.26168400  0.26028900  0.41928500  1
  C  C26  1  0.23971100  0.76168400  0.66928500  1
  C  C27  1  0.76028900  0.23831600  0.16928500  1
  C  C28  1  0.26028900  0.26168400  0.58071500  1
  C  C29  1  0.73971100  0.73831600  0.08071500  1
  C  C30  1  0.76168400  0.23971100  0.33071500  1
  C  C31  1  0.23831600  0.76028900  0.83071500  1
  C  C32  1  0.56005500  0.88645100  0.99416400  1
  C  C33  1  0.43994500  0.11354900  0.49416400  1
  C  C34  1  0.38645100  0.93994500  0.74416400  1
  C  C35  1  0.61354900  0.06005500  0.24416400  1
  C  C36  1  0.11354900  0.43994500  0.50583600  1
  C  C37  1  0.88645100  0.56005500  0.00583600  1
  C  C38  1  0.93994500  0.38645100  0.25583600  1
  C  C39  1  0.06005500  0.61354900  0.75583600  1
  C  C40  1  0.83244500  0.86832800  0.84481400  1
  C  C41  1  0.16755500  0.13167200  0.34481400  1
  C  C42  1  0.36832800  0.66755500  0.59481400  1
  C  C43  1  0.63167200  0.33244500  0.09481400  1
  C  C44  1  0.13167200  0.16755500  0.65518600  1
  C  C45  1  0.86832800  0.83244500  0.15518600  1
  C  C46  1  0.66755500  0.36832800  0.40518600  1
  C  C47  1  0.33244500  0.63167200  0.90518600  1
  Ni  Ni48  1  0.04221700  0.95778300  0.75000000  1
  Ni  Ni49  1  0.95778300  0.04221700  0.25000000  1
  Ni  Ni50  1  0.45778300  0.45778300  0.50000000  1
  Ni  Ni51  1  0.54221700  0.54221700  0.00000000  1
  Ni  Ni52  1  0.68419300  0.03026100  0.92088200  1
  Ni  Ni53  1  0.31580700  0.96973900  0.42088200  1
  Ni  Ni54  1  0.53026100  0.81580700  0.67088200  1
  Ni  Ni55  1  0.46973900  0.18419300  0.17088200  1
  Ni  Ni56  1  0.96973900  0.31580700  0.57911800  1
  Ni  Ni57  1  0.03026100  0.68419300  0.07911800  1
  Ni  Ni58  1  0.81580700  0.53026100  0.32911800  1
  Ni  Ni59  1  0.18419300  0.46973900  0.82911800  1
  Cu  Cu60  1  0.56351900  0.01466100  0.97137000  1
  Cu  Cu61  1  0.43648100  0.98533900  0.47137000  1
  Cu  Cu62  1  0.51466100  0.93648100  0.72137000  1
  Cu  Cu63  1  0.48533900  0.06351900  0.22137000  1
  Cu  Cu64  1  0.98533900  0.43648100  0.52863000  1
  Cu  Cu65  1  0.01466100  0.56351900  0.02863000  1
  Cu  Cu66  1  0.93648100  0.51466100  0.27863000  1
  Cu  Cu67  1  0.06351900  0.48533900  0.77863000  1
  Cu  Cu68  1  0.72690900  0.18194600  0.88340800  1
  Cu  Cu69  1  0.27309100  0.81805400  0.38340800  1
  Cu  Cu70  1  0.68194600  0.77309100  0.63340800  1
  Cu  Cu71  1  0.31805400  0.22690900  0.13340800  1
  Cu  Cu72  1  0.81805400  0.27309100  0.61659200  1
  Cu  Cu73  1  0.18194600  0.72690900  0.11659200  1
  Cu  Cu74  1  0.77309100  0.68194600  0.36659200  1
  Cu  Cu75  1  0.22690900  0.31805400  0.86659200  1
  Cu  Cu76  1  0.80420600  0.87035200  0.90017300  1
  Cu  Cu77  1  0.19579400  0.12964800  0.40017300  1
  Cu  Cu78  1  0.37035200  0.69579400  0.65017300  1
  Cu  Cu79  1  0.62964800  0.30420600  0.15017300  1
  Cu  Cu80  1  0.12964800  0.19579400  0.59982700  1
  Cu  Cu81  1  0.87035200  0.80420600  0.09982700  1
  Cu  Cu82  1  0.69579400  0.37035200  0.34982700  1
  Cu  Cu83  1  0.30420600  0.62964800  0.84982700  1
  C  C84  1  0.13669500  0.92466500  0.81022900  1
  C  C85  1  0.86330500  0.07533500  0.31022900  1
  C  C86  1  0.42466500  0.36330500  0.56022900  1
  C  C87  1  0.57533500  0.63669500  0.06022900  1
  C  C88  1  0.07533500  0.86330500  0.68977100  1
  C  C89  1  0.92466500  0.13669500  0.18977100  1
  C  C90  1  0.36330500  0.42466500  0.43977100  1
  C  C91  1  0.63669500  0.57533500  0.93977100  1
  C  C92  1  0.91918600  0.08081400  0.75000000  1
  C  C93  1  0.08081400  0.91918600  0.25000000  1
  C  C94  1  0.58081400  0.58081400  0.50000000  1
  C  C95  1  0.41918600  0.41918600  0.00000000  1
