# generated using pymatgen
data_CuNiC5
_symmetry_space_group_name_H-M   'P 1'
_cell_length_a   7.88263591
_cell_length_b   7.95023336
_cell_length_c   8.12294377
_cell_angle_alpha   67.93373004
_cell_angle_beta   97.34083693
_cell_angle_gamma   85.94387322
_symmetry_Int_Tables_number   1
_chemical_formula_structural   CuNiC5
_chemical_formula_sum   'Cu6 Ni6 C30'
_cell_volume   463.97965943
_cell_formula_units_Z   6
loop_
 _symmetry_equiv_pos_site_id
 _symmetry_equiv_pos_as_xyz
  1  'x, y, z'
loop_
 _atom_site_type_symbol
 _atom_site_label
 _atom_site_symmetry_multiplicity
 _atom_site_fract_x
 _atom_site_fract_y
 _atom_site_fract_z
 _atom_site_occupancy
  C  C0  1  0.75484700  0.00803100  0.23934100  1
  C  C1  1  0.25483900  0.00831600  0.73908500  1
  C  C2  1  0.50129300  0.33115100  0.16945800  1
  C  C3  1  0.00138300  0.33115800  0.66968600  1
  C  C4  1  0.74187900  0.65955600  0.59547600  1
  C  C5  1  0.24205000  0.65917600  0.09552000  1
  Ni  Ni6  1  0.85887500  0.00411800  0.62045600  1
  Ni  Ni7  1  0.35861800  0.00406200  0.11990500  1
  Ni  Ni8  1  0.89764500  0.34549500  0.29880200  1
  Ni  Ni9  1  0.39757400  0.34548900  0.79872000  1
  Ni  Ni10  1  0.62557100  0.67125600  0.20453100  1
  Ni  Ni11  1  0.12582200  0.67158100  0.70449900  1
  Cu  Cu12  1  0.12875200  0.00221100  0.37666600  1
  Cu  Cu13  1  0.61135700  0.32607600  0.53148300  1
  Cu  Cu14  1  0.87280900  0.66526500  0.95591200  1
  Cu  Cu15  1  0.62871000  0.00212400  0.87657900  1
  Cu  Cu16  1  0.11137800  0.32623300  0.03169500  1
  Cu  Cu17  1  0.37260200  0.66506600  0.45578900  1
  C  C18  1  0.79937700  0.15899700  0.74187400  1
  C  C19  1  0.29924100  0.15899700  0.24166500  1
  C  C20  1  0.04478300  0.16312300  0.51669700  1
  C  C21  1  0.54462000  0.16299700  0.01658700  1
  C  C22  1  0.05026900  0.49308400  0.16760400  1
  C  C23  1  0.55018400  0.49303000  0.66723700  1
  C  C24  1  0.79577000  0.48724400  0.42776200  1
  C  C25  1  0.29589700  0.48720200  0.92772100  1
  C  C26  1  0.78926300  0.82518100  0.09084300  1
  C  C27  1  0.28939400  0.82535900  0.59089300  1
  C  C28  1  0.55568500  0.82095100  0.33481600  1
  C  C29  1  0.05583500  0.82125800  0.83476400  1
  C  C30  1  0.70999200  0.16870700  0.40328200  1
  C  C31  1  0.20982900  0.16883500  0.90296400  1
  C  C32  1  0.94796600  0.17647800  0.17823100  1
  C  C33  1  0.44794700  0.17648200  0.67811200  1
  C  C34  1  0.70814600  0.50030800  0.09986800  1
  C  C35  1  0.20813300  0.50050200  0.59979200  1
  C  C36  1  0.45048200  0.51119800  0.31177400  1
  C  C37  1  0.95062200  0.51143900  0.81217000  1
  C  C38  1  0.44899400  0.84033700  0.00103700  1
  C  C39  1  0.94919800  0.84040800  0.50112100  1
  C  C40  1  0.70961600  0.83997300  0.73929400  1
  C  C41  1  0.20958500  0.83992300  0.23927300  1
