# generated using pymatgen
data_Cu8Ni3C32
_symmetry_space_group_name_H-M   'P 1'
_cell_length_a   10.09480935
_cell_length_b   10.09480935
_cell_length_c   14.36756196
_cell_angle_alpha   89.38601063
_cell_angle_beta   89.38601063
_cell_angle_gamma   60.27172797
_symmetry_Int_Tables_number   1
_chemical_formula_structural   Cu8Ni3C32
_chemical_formula_sum   'Cu16 Ni6 C64'
_cell_volume   1271.33282045
_cell_formula_units_Z   2
loop_
 _symmetry_equiv_pos_site_id
 _symmetry_equiv_pos_as_xyz
  1  'x, y, z'
loop_
 _atom_site_type_symbol
 _atom_site_label
 _atom_site_symmetry_multiplicity
 _atom_site_fract_x
 _atom_site_fract_y
 _atom_site_fract_z
 _atom_site_occupancy
  C  C0  1  0.00000000  0.00000000  0.00000000  1
  C  C1  1  0.00000000  0.00000000  0.50000000  1
  C  C2  1  0.91267300  0.32121300  0.44616000  1
  C  C3  1  0.32121300  0.91267300  0.94616000  1
  C  C4  1  0.67878700  0.08732700  0.05384000  1
  C  C5  1  0.08732700  0.67878700  0.55384000  1
  Ni  Ni6  1  0.99928700  0.56497700  0.75973700  1
  Ni  Ni7  1  0.00071300  0.43502300  0.24026300  1
  Ni  Ni8  1  0.56497700  0.99928700  0.25973700  1
  Ni  Ni9  1  0.43502300  0.00071300  0.74026300  1
  Ni  Ni10  1  0.56114600  0.43885400  0.75000000  1
  Ni  Ni11  1  0.43885400  0.56114600  0.25000000  1
  Cu  Cu12  1  0.92110500  0.78795200  0.15632300  1
  Cu  Cu13  1  0.78795200  0.92110500  0.65632300  1
  Cu  Cu14  1  0.91630700  0.30968400  0.65539800  1
  Cu  Cu15  1  0.67042300  0.66110300  0.37684500  1
  Cu  Cu16  1  0.66110300  0.67042300  0.87684500  1
  Cu  Cu17  1  0.78001400  0.29704900  0.15298500  1
  Cu  Cu18  1  0.70295100  0.21998600  0.34701500  1
  Cu  Cu19  1  0.30968400  0.91630700  0.15539800  1
  Cu  Cu20  1  0.69031600  0.08369300  0.84460200  1
  Cu  Cu21  1  0.29704900  0.78001400  0.65298500  1
  Cu  Cu22  1  0.21998600  0.70295100  0.84701500  1
  Cu  Cu23  1  0.32957700  0.33889700  0.62315500  1
  Cu  Cu24  1  0.33889700  0.32957700  0.12315500  1
  Cu  Cu25  1  0.08369300  0.69031600  0.34460200  1
  Cu  Cu26  1  0.21204800  0.07889500  0.34367700  1
  Cu  Cu27  1  0.07889500  0.21204800  0.84367700  1
  C  C28  1  0.98916100  0.79177700  0.25683400  1
  C  C29  1  0.00833900  0.77350700  0.43268800  1
  C  C30  1  0.92533800  0.75334000  0.65767600  1
  C  C31  1  0.79177700  0.98916100  0.75683400  1
  C  C32  1  0.77350700  0.00833900  0.93268800  1
  C  C33  1  0.75334000  0.92533800  0.15767600  1
  C  C34  1  0.91466100  0.63723800  0.15018800  1
  C  C35  1  0.79211800  0.69936800  0.84013800  1
  C  C36  1  0.90278200  0.46906700  0.66289600  1
  C  C37  1  0.99517400  0.18206600  0.91941400  1
  C  C38  1  0.01083900  0.20822300  0.74316600  1
  C  C39  1  0.92357800  0.31612700  0.14886300  1
  C  C40  1  0.69936800  0.79211800  0.34013800  1
  C  C41  1  0.63723800  0.91466100  0.65018800  1
  C  C42  1  0.80740300  0.50401700  0.33995000  1
  C  C43  1  0.67218100  0.64993500  0.48072500  1
  C  C44  1  0.64993500  0.67218100  0.98072500  1
  C  C45  1  0.68967700  0.51803600  0.83107300  1
  C  C46  1  0.46906700  0.90278200  0.16289600  1
  C  C47  1  0.50401700  0.80740300  0.83995000  1
  C  C48  1  0.75516800  0.32488300  0.65875900  1
  C  C49  1  0.78757900  0.21242100  0.25000000  1
  C  C50  1  0.80591200  0.21127700  0.42361100  1
  C  C51  1  0.78872300  0.19408800  0.07638900  1
  C  C52  1  0.63528500  0.45809100  0.15552000  1
  C  C53  1  0.51803600  0.68967700  0.33107300  1
  C  C54  1  0.67511700  0.24483200  0.84124100  1
  C  C55  1  0.45809100  0.63528500  0.65552000  1
  C  C56  1  0.31612700  0.92357800  0.64886300  1
  C  C57  1  0.81793400  0.00482600  0.58058600  1
  C  C58  1  0.18206600  0.99517400  0.41941400  1
  C  C59  1  0.20822300  0.01083900  0.24316600  1
  C  C60  1  0.68387300  0.07642200  0.35113700  1
  C  C61  1  0.54190900  0.36471500  0.34448000  1
  C  C62  1  0.32488300  0.75516800  0.15875900  1
  C  C63  1  0.48196400  0.31032300  0.66892700  1
  C  C64  1  0.36471500  0.54190900  0.84448000  1
  C  C65  1  0.21127700  0.80591200  0.92361100  1
  C  C66  1  0.19408800  0.78872300  0.57638900  1
  C  C67  1  0.21242100  0.78757900  0.75000000  1
  C  C68  1  0.24483200  0.67511700  0.34124100  1
  C  C69  1  0.49598300  0.19259700  0.16005000  1
  C  C70  1  0.53093300  0.09721800  0.83710400  1
  C  C71  1  0.31032300  0.48196400  0.16892700  1
  C  C72  1  0.32781900  0.35006500  0.51927500  1
  C  C73  1  0.35006500  0.32781900  0.01927500  1
  C  C74  1  0.19259700  0.49598300  0.66005000  1
  C  C75  1  0.36276200  0.08533900  0.34981200  1
  C  C76  1  0.30063200  0.20788200  0.65986200  1
  C  C77  1  0.07642200  0.68387300  0.85113700  1
  C  C78  1  0.00482600  0.81793400  0.08058600  1
  C  C79  1  0.09721800  0.53093300  0.33710400  1
  C  C80  1  0.20788200  0.30063200  0.15986200  1
  C  C81  1  0.08533900  0.36276200  0.84981200  1
  C  C82  1  0.24666000  0.07466200  0.84232400  1
  C  C83  1  0.22649300  0.99166100  0.06731200  1
  C  C84  1  0.07466200  0.24666000  0.34232400  1
  C  C85  1  0.99166100  0.22649300  0.56731200  1
