# generated using pymatgen
data_Cu11(NiC5)4
_symmetry_space_group_name_H-M   'P 1'
_cell_length_a   9.81384041
_cell_length_b   9.81384041
_cell_length_c   18.00399541
_cell_angle_alpha   88.29715206
_cell_angle_beta   88.29715206
_cell_angle_gamma   59.55249114
_symmetry_Int_Tables_number   1
_chemical_formula_structural   Cu11(NiC5)4
_chemical_formula_sum   'Cu44 Ni16 C80'
_cell_volume   1493.98664908
_cell_formula_units_Z   4
loop_
 _symmetry_equiv_pos_site_id
 _symmetry_equiv_pos_as_xyz
  1  'x, y, z'
loop_
 _atom_site_type_symbol
 _atom_site_label
 _atom_site_symmetry_multiplicity
 _atom_site_fract_x
 _atom_site_fract_y
 _atom_site_fract_z
 _atom_site_occupancy
  C  C0  1  0.23485300  0.76514700  0.25000000  1
  C  C1  1  0.76514700  0.23485300  0.75000000  1
  C  C2  1  0.23879300  0.18406200  0.24301900  1
  C  C3  1  0.81593800  0.76120700  0.25698100  1
  C  C4  1  0.76120700  0.81593800  0.75698100  1
  C  C5  1  0.18406200  0.23879300  0.74301900  1
  C  C6  1  0.65674900  0.34325100  0.25000000  1
  C  C7  1  0.34325100  0.65674900  0.75000000  1
  Ni  Ni8  1  0.87547000  0.00724200  0.35398000  1
  Ni  Ni9  1  0.99275800  0.12453000  0.14602000  1
  Ni  Ni10  1  0.12453000  0.99275800  0.64602000  1
  Ni  Ni11  1  0.00724200  0.87547000  0.85398000  1
  Ni  Ni12  1  0.11818900  0.52784400  0.14600900  1
  Ni  Ni13  1  0.47215600  0.88181100  0.35399100  1
  Ni  Ni14  1  0.88181100  0.47215600  0.85399100  1
  Ni  Ni15  1  0.52784400  0.11818900  0.64600900  1
  Ni  Ni16  1  0.35326300  0.39144500  0.35210800  1
  Ni  Ni17  1  0.60855500  0.64673700  0.14789200  1
  Ni  Ni18  1  0.64673700  0.60855500  0.64789200  1
  Ni  Ni19  1  0.39144500  0.35326300  0.85210800  1
  Ni  Ni20  1  0.57766900  0.10110700  0.15757900  1
  Ni  Ni21  1  0.89889300  0.42233100  0.34242100  1
  Ni  Ni22  1  0.42233100  0.89889300  0.84242100  1
  Ni  Ni23  1  0.10110700  0.57766900  0.65757900  1
  Cu  Cu24  1  0.99669600  0.34852300  0.45515200  1
  Cu  Cu25  1  0.65147700  0.00330400  0.04484800  1
  Cu  Cu26  1  0.00330400  0.65147700  0.54484800  1
  Cu  Cu27  1  0.34852300  0.99669600  0.95515200  1
  Cu  Cu28  1  0.38070000  0.42237400  0.15152400  1
  Cu  Cu29  1  0.57762600  0.61930000  0.34847600  1
  Cu  Cu30  1  0.61930000  0.57762600  0.84847600  1
  Cu  Cu31  1  0.42237400  0.38070000  0.65152400  1
  Cu  Cu32  1  0.93784700  0.65232400  0.05844100  1
  Cu  Cu33  1  0.34767600  0.06215300  0.44155900  1
  Cu  Cu34  1  0.06215300  0.34767600  0.94155900  1
  Cu  Cu35  1  0.65232400  0.93784700  0.55844100  1
  Cu  Cu36  1  0.88723000  0.96891900  0.16001500  1
  Cu  Cu37  1  0.03108100  0.11277000  0.33998500  1
  Cu  Cu38  1  0.11277000  0.03108100  0.83998500  1
  Cu  Cu39  1  0.96891900  0.88723000  0.66001500  1
  Cu  Cu40  1  0.90106300  0.22287000  0.03562200  1
  Cu  Cu41  1  0.77713000  0.09893700  0.46437800  1
  Cu  Cu42  1  0.09893700  0.77713000  0.96437800  1
  Cu  Cu43  1  0.22287000  0.90106300  0.53562200  1
  Cu  Cu44  1  0.09161800  0.55144100  0.35240100  1
  Cu  Cu45  1  0.44855900  0.90838200  0.14759900  1
  Cu  Cu46  1  0.90838200  0.44855900  0.64759900  1
  Cu  Cu47  1  0.55144100  0.09161800  0.85240100  1
  Cu  Cu48  1  0.51912500  0.31548800  0.44735200  1
  Cu  Cu49  1  0.68451200  0.48087500  0.05264800  1
  Cu  Cu50  1  0.48087500  0.68451200  0.55264800  1
  Cu  Cu51  1  0.31548800  0.51912500  0.94735200  1
  Cu  Cu52  1  0.75127400  0.71009500  0.50454800  1
  Cu  Cu53  1  0.28990500  0.24872600  0.99545200  1
  Cu  Cu54  1  0.24872600  0.28990500  0.49545200  1
  Cu  Cu55  1  0.71009500  0.75127400  0.00454800  1
  Cu  Cu56  1  0.81343700  0.82197900  0.47224600  1
  Cu  Cu57  1  0.17802100  0.18656300  0.02775400  1
  Cu  Cu58  1  0.18656300  0.17802100  0.52775400  1
  Cu  Cu59  1  0.82197900  0.81343700  0.97224600  1
  Cu  Cu60  1  0.69920100  0.34994300  0.95270500  1
  Cu  Cu61  1  0.65005700  0.30079900  0.54729500  1
  Cu  Cu62  1  0.30079900  0.65005700  0.04729500  1
  Cu  Cu63  1  0.34994300  0.69920100  0.45270500  1
  Cu  Cu64  1  0.65876500  0.25830400  0.01693400  1
  Cu  Cu65  1  0.74169600  0.34123500  0.48306600  1
  Cu  Cu66  1  0.34123500  0.74169600  0.98306600  1
  Cu  Cu67  1  0.25830400  0.65876500  0.51693400  1
  C  C68  1  0.84259900  0.25519800  0.18186000  1
  C  C69  1  0.74480200  0.15740100  0.31814000  1
  C  C70  1  0.15740100  0.74480200  0.81814000  1
  C  C71  1  0.25519800  0.84259900  0.68186000  1
  C  C72  1  0.14776200  0.08232200  0.18117100  1
  C  C73  1  0.91767800  0.85223800  0.31882900  1
  C  C74  1  0.85223800  0.91767800  0.81882900  1
  C  C75  1  0.08232200  0.14776200  0.68117100  1
  C  C76  1  0.98833500  0.96604700  0.14313200  1
  C  C77  1  0.03395300  0.01166500  0.35686800  1
  C  C78  1  0.01166500  0.03395300  0.85686800  1
  C  C79  1  0.96604700  0.98833500  0.64313200  1
  C  C80  1  0.00507800  0.17265000  0.06193100  1
  C  C81  1  0.82735000  0.99492200  0.43806900  1
  C  C82  1  0.99492200  0.82735000  0.93806900  1
  C  C83  1  0.17265000  0.00507800  0.56193100  1
  C  C84  1  0.63167400  0.85402600  0.32665300  1
  C  C85  1  0.14597400  0.36832600  0.17334700  1
  C  C86  1  0.36832600  0.14597400  0.67334700  1
  C  C87  1  0.85402600  0.63167400  0.82665300  1
  C  C88  1  0.02057700  0.66500100  0.19776100  1
  C  C89  1  0.33499900  0.97942300  0.30223900  1
  C  C90  1  0.97942300  0.33499900  0.80223900  1
  C  C91  1  0.66500100  0.02057700  0.69776100  1
  C  C92  1  0.04898600  0.56565600  0.06534000  1
  C  C93  1  0.43434400  0.95101400  0.43466000  1
  C  C94  1  0.95101400  0.43434400  0.93466000  1
  C  C95  1  0.56565600  0.04898600  0.56534000  1
  C  C96  1  0.28390000  0.51842300  0.13049900  1
  C  C97  1  0.48157700  0.71610000  0.36950100  1
  C  C98  1  0.71610000  0.48157700  0.86950100  1
  C  C99  1  0.51842300  0.28390000  0.63049900  1
  C  C100  1  0.32635200  0.27443000  0.31167000  1
  C  C101  1  0.72557000  0.67364800  0.18833000  1
  C  C102  1  0.67364800  0.72557000  0.68833000  1
  C  C103  1  0.27443000  0.32635200  0.81167000  1
  C  C104  1  0.45801400  0.44534200  0.31266700  1
  C  C105  1  0.55465800  0.54198600  0.18733300  1
  C  C106  1  0.54198600  0.55465800  0.68733300  1
  C  C107  1  0.44534200  0.45801400  0.81266700  1
  C  C108  1  0.42050700  0.31897400  0.43184000  1
  C  C109  1  0.68102600  0.57949300  0.06816000  1
  C  C110  1  0.57949300  0.68102600  0.56816000  1
  C  C111  1  0.31897400  0.42050700  0.93184000  1
  C  C112  1  0.19089800  0.54705500  0.36957100  1
  C  C113  1  0.45294500  0.80910200  0.13042900  1
  C  C114  1  0.80910200  0.45294500  0.63042900  1
  C  C115  1  0.54705500  0.19089800  0.86957100  1
  C  C116  1  0.54193700  0.26462400  0.18294900  1
  C  C117  1  0.73537600  0.45806300  0.31705100  1
  C  C118  1  0.45806300  0.73537600  0.81705100  1
  C  C119  1  0.26462400  0.54193700  0.68294900  1
  C  C120  1  0.73355800  0.96244300  0.18776300  1
  C  C121  1  0.03755700  0.26644200  0.31223700  1
  C  C122  1  0.26644200  0.03755700  0.81223700  1
  C  C123  1  0.96244300  0.73355800  0.68776300  1
  C  C124  1  0.92662100  0.56136100  0.32585000  1
  C  C125  1  0.43863900  0.07337900  0.17415000  1
  C  C126  1  0.07337900  0.43863900  0.67415000  1
  C  C127  1  0.56136100  0.92662100  0.82585000  1
  C  C128  1  0.60119100  0.10973400  0.06903200  1
  C  C129  1  0.89026600  0.39880900  0.43096800  1
  C  C130  1  0.39880900  0.89026600  0.93096800  1
  C  C131  1  0.10973400  0.60119100  0.56903200  1
  C  C132  1  0.68165700  0.28734900  0.49449900  1
  C  C133  1  0.71265100  0.31834300  0.00550100  1
  C  C134  1  0.31834300  0.71265100  0.50550100  1
  C  C135  1  0.28734900  0.68165700  0.99449900  1
  C  C136  1  0.24134600  0.18591100  0.98413800  1
  C  C137  1  0.81408900  0.75865400  0.51586200  1
  C  C138  1  0.75865400  0.81408900  0.01586200  1
  C  C139  1  0.18591100  0.24134600  0.48413800  1
