# generated using pymatgen
data_CuNiC10
_symmetry_space_group_name_H-M   'P 1'
_cell_length_a   8.46549189
_cell_length_b   8.46549189
_cell_length_c   8.46549147
_cell_angle_alpha   61.13116633
_cell_angle_beta   61.13116633
_cell_angle_gamma   61.13116273
_symmetry_Int_Tables_number   1
_chemical_formula_structural   CuNiC10
_chemical_formula_sum   'Cu3 Ni3 C30'
_cell_volume   439.90497663
_cell_formula_units_Z   3
loop_
 _symmetry_equiv_pos_site_id
 _symmetry_equiv_pos_as_xyz
  1  'x, y, z'
loop_
 _atom_site_type_symbol
 _atom_site_label
 _atom_site_symmetry_multiplicity
 _atom_site_fract_x
 _atom_site_fract_y
 _atom_site_fract_z
 _atom_site_occupancy
  Ni  Ni0  1  0.35520100  0.35520100  0.35520100  1
  Ni  Ni1  1  0.14233800  0.14233800  0.14233800  1
  Ni  Ni2  1  0.64518200  0.64518200  0.64518200  1
  Cu  Cu3  1  0.99717900  0.99717900  0.99717900  1
  Cu  Cu4  1  0.85819400  0.85819400  0.85819400  1
  Cu  Cu5  1  0.49875800  0.49875800  0.49875800  1
  C  C6  1  0.45627500  0.75239000  0.04702300  1
  C  C7  1  0.75239000  0.04702300  0.45627500  1
  C  C8  1  0.04702300  0.45627500  0.75239000  1
  C  C9  1  0.95279100  0.54621000  0.25000600  1
  C  C10  1  0.25000600  0.95279100  0.54621000  1
  C  C11  1  0.54621000  0.25000600  0.95279100  1
  C  C12  1  0.68373500  0.88269900  0.50327100  1
  C  C13  1  0.88269900  0.50327100  0.68373500  1
  C  C14  1  0.50327100  0.68373500  0.88269900  1
  C  C15  1  0.25445300  0.90919600  0.05842600  1
  C  C16  1  0.60835600  0.81737800  0.01382600  1
  C  C17  1  0.43232000  0.58936400  0.24490200  1
  C  C18  1  0.90919600  0.05842600  0.25445300  1
  C  C19  1  0.58936400  0.24490200  0.43232000  1
  C  C20  1  0.00215500  0.38224100  0.18197300  1
  C  C21  1  0.24490200  0.43232000  0.58936400  1
  C  C22  1  0.94570300  0.74097600  0.09601100  1
  C  C23  1  0.18197300  0.00215500  0.38224100  1
  C  C24  1  0.81737800  0.01382600  0.60835600  1
  C  C25  1  0.05842600  0.25445300  0.90919600  1
  C  C26  1  0.75669600  0.55347200  0.41265000  1
  C  C27  1  0.01382600  0.60835600  0.81737800  1
  C  C28  1  0.41265000  0.75669600  0.55347200  1
  C  C29  1  0.09601100  0.94570300  0.74097600  1
  C  C30  1  0.55347200  0.41265000  0.75669600  1
  C  C31  1  0.38224100  0.18197300  0.00215500  1
  C  C32  1  0.74097600  0.09601100  0.94570300  1
  C  C33  1  0.48887300  0.32802300  0.11180300  1
  C  C34  1  0.11180300  0.48887300  0.32802300  1
  C  C35  1  0.32802300  0.11180300  0.48887300  1
