# generated using pymatgen
data_Cu2Ni2C21
_symmetry_space_group_name_H-M   'P 1'
_cell_length_a   8.99452067
_cell_length_b   5.27275991
_cell_length_c   6.62254132
_cell_angle_alpha   89.70059490
_cell_angle_beta   88.04933799
_cell_angle_gamma   89.16464163
_symmetry_Int_Tables_number   1
_chemical_formula_structural   Cu2Ni2C21
_chemical_formula_sum   'Cu2 Ni2 C21'
_cell_volume   313.86141648
_cell_formula_units_Z   1
loop_
 _symmetry_equiv_pos_site_id
 _symmetry_equiv_pos_as_xyz
  1  'x, y, z'
loop_
 _atom_site_type_symbol
 _atom_site_label
 _atom_site_symmetry_multiplicity
 _atom_site_fract_x
 _atom_site_fract_y
 _atom_site_fract_z
 _atom_site_occupancy
  C  C0  1  0.08717800  0.76846500  0.23446200  1
  C  C1  1  0.26658200  0.24296400  0.48638200  1
  C  C2  1  0.74156500  0.74839500  0.48893400  1
  C  C3  1  0.73621000  0.74834100  0.99493900  1
  C  C4  1  0.92515800  0.24370100  0.76333700  1
  C  C5  1  0.34528700  0.78235400  0.76770700  1
  C  C6  1  0.64786100  0.22405500  0.24513000  1
  Ni  Ni7  1  0.41754500  0.70504000  0.25785400  1
  Ni  Ni8  1  0.57822600  0.28147400  0.74570100  1
  Cu  Cu9  1  0.06455300  0.73034600  0.74682400  1
  Cu  Cu10  1  0.93777900  0.27794500  0.25270400  1
  C  C11  1  0.07454000  0.30497200  0.28899800  1
  C  C12  1  0.12521200  0.95340500  0.75766600  1
  C  C13  1  0.15596900  0.53649500  0.74959500  1
  C  C14  1  0.32574700  0.77086500  0.06654700  1
  C  C15  1  0.31715900  0.79047500  0.44450500  1
  C  C16  1  0.43563200  0.12148200  0.74059900  1
  C  C17  1  0.44604100  0.41694800  0.27189300  1
  C  C18  1  0.53322400  0.57175900  0.74795600  1
  C  C19  1  0.56698500  0.84634300  0.25060500  1
  C  C20  1  0.68372300  0.23137500  0.55958700  1
  C  C21  1  0.67346200  0.21921000  0.93034800  1
  C  C22  1  0.84910400  0.47689500  0.23193100  1
  C  C23  1  0.87913000  0.05230700  0.23529200  1
  C  C24  1  0.92264900  0.70481000  0.73804400  1
