# generated using pymatgen
data_Cu2Ni4C9
_symmetry_space_group_name_H-M   'P 1'
_cell_length_a   8.34103100
_cell_length_b   11.88929800
_cell_length_c   16.30806500
_cell_angle_alpha   90.00000000
_cell_angle_beta   90.00000000
_cell_angle_gamma   90.00000000
_symmetry_Int_Tables_number   1
_chemical_formula_structural   Cu2Ni4C9
_chemical_formula_sum   'Cu8 Ni16 C36'
_cell_volume   1617.25454995
_cell_formula_units_Z   4
loop_
 _symmetry_equiv_pos_site_id
 _symmetry_equiv_pos_as_xyz
  1  'x, y, z'
loop_
 _atom_site_type_symbol
 _atom_site_label
 _atom_site_symmetry_multiplicity
 _atom_site_fract_x
 _atom_site_fract_y
 _atom_site_fract_z
 _atom_site_occupancy
  C  C0  1  0.25000000  0.74892900  0.08948500  1
  C  C1  1  0.25000000  0.24892900  0.41051500  1
  C  C2  1  0.75000000  0.25107100  0.91051500  1
  C  C3  1  0.75000000  0.75107100  0.58948500  1
  C  C4  1  0.25000000  0.73878700  0.36511600  1
  C  C5  1  0.25000000  0.23878700  0.13488400  1
  C  C6  1  0.75000000  0.26121300  0.63488400  1
  C  C7  1  0.75000000  0.76121300  0.86511600  1
  C  C8  1  0.25000000  0.58271100  0.47786900  1
  C  C9  1  0.25000000  0.08271100  0.02213100  1
  C  C10  1  0.75000000  0.41728900  0.52213100  1
  C  C11  1  0.75000000  0.91728900  0.97786900  1
  C  C12  1  0.33660100  0.62116700  0.34917900  1
  C  C13  1  0.16339900  0.12116700  0.15082100  1
  C  C14  1  0.83660100  0.37883300  0.65082100  1
  C  C15  1  0.66339900  0.87883300  0.84917900  1
  C  C16  1  0.66339900  0.37883300  0.65082100  1
  C  C17  1  0.83660100  0.87883300  0.84917900  1
  C  C18  1  0.16339900  0.62116700  0.34917900  1
  C  C19  1  0.33660100  0.12116700  0.15082100  1
  C  C20  1  0.25000000  0.02959500  0.77039500  1
  C  C21  1  0.25000000  0.52959500  0.72960500  1
  C  C22  1  0.75000000  0.97040500  0.22960500  1
  C  C23  1  0.75000000  0.47040500  0.27039500  1
  C  C24  1  0.25000000  0.87430400  0.58156000  1
  C  C25  1  0.25000000  0.37430400  0.91844000  1
  C  C26  1  0.75000000  0.12569600  0.41844000  1
  C  C27  1  0.75000000  0.62569600  0.08156000  1
  C  C28  1  0.37104800  0.02684200  0.71658700  1
  C  C29  1  0.12895200  0.52684200  0.78341300  1
  C  C30  1  0.87104800  0.97315800  0.28341300  1
  C  C31  1  0.62895200  0.47315800  0.21658700  1
  C  C32  1  0.62895200  0.97315800  0.28341300  1
  C  C33  1  0.87104800  0.47315800  0.21658700  1
  C  C34  1  0.12895200  0.02684200  0.71658700  1
  C  C35  1  0.37104800  0.52684200  0.78341300  1
  Ni  Ni36  1  0.25000000  0.56274900  0.09733600  1
  Ni  Ni37  1  0.25000000  0.06274900  0.40266400  1
  Ni  Ni38  1  0.75000000  0.43725100  0.90266400  1
  Ni  Ni39  1  0.75000000  0.93725100  0.59733600  1
  Ni  Ni40  1  0.25000000  0.80346000  0.95742000  1
  Ni  Ni41  1  0.25000000  0.30346000  0.54258000  1
  Ni  Ni42  1  0.75000000  0.19654000  0.04258000  1
  Ni  Ni43  1  0.75000000  0.69654000  0.45742000  1
  Ni  Ni44  1  0.03505900  0.81153400  0.15801100  1
  Ni  Ni45  1  0.46494100  0.31153400  0.34198900  1
  Ni  Ni46  1  0.53505900  0.18846600  0.84198900  1
  Ni  Ni47  1  0.96494100  0.68846600  0.65801100  1
  Ni  Ni48  1  0.96494100  0.18846600  0.84198900  1
  Ni  Ni49  1  0.53505900  0.68846600  0.65801100  1
  Ni  Ni50  1  0.46494100  0.81153400  0.15801100  1
  Ni  Ni51  1  0.03505900  0.31153400  0.34198900  1
  Cu  Cu52  1  0.25000000  0.67500600  0.44227500  1
  Cu  Cu53  1  0.25000000  0.17500600  0.05772500  1
  Cu  Cu54  1  0.75000000  0.32499400  0.55772500  1
  Cu  Cu55  1  0.75000000  0.82499400  0.94227500  1
  Cu  Cu56  1  0.25000000  0.96722000  0.60897300  1
  Cu  Cu57  1  0.25000000  0.46722000  0.89102700  1
  Cu  Cu58  1  0.75000000  0.03278000  0.39102700  1
  Cu  Cu59  1  0.75000000  0.53278000  0.10897300  1
