# generated using pymatgen
data_Cu2Ni3C31
_symmetry_space_group_name_H-M   'P 1'
_cell_length_a   8.65731398
_cell_length_b   8.65731398
_cell_length_c   8.65731376
_cell_angle_alpha   60.10858156
_cell_angle_beta   60.10858156
_cell_angle_gamma   60.10857729
_symmetry_Int_Tables_number   1
_chemical_formula_structural   Cu2Ni3C31
_chemical_formula_sum   'Cu2 Ni3 C31'
_cell_volume   459.94043265
_cell_formula_units_Z   1
loop_
 _symmetry_equiv_pos_site_id
 _symmetry_equiv_pos_as_xyz
  1  'x, y, z'
loop_
 _atom_site_type_symbol
 _atom_site_label
 _atom_site_symmetry_multiplicity
 _atom_site_fract_x
 _atom_site_fract_y
 _atom_site_fract_z
 _atom_site_occupancy
  Ni  Ni0  1  0.85532100  0.85532100  0.85532100  1
  Ni  Ni1  1  0.64519500  0.64519500  0.64519500  1
  Ni  Ni2  1  0.35345600  0.35345600  0.35345600  1
  Cu  Cu3  1  0.00297300  0.00297300  0.00297300  1
  Cu  Cu4  1  0.50057800  0.50057800  0.50057800  1
  C  C5  1  0.14468100  0.14468100  0.14468100  1
  C  C6  1  0.04251300  0.74824200  0.45694000  1
  C  C7  1  0.74824200  0.45694000  0.04251300  1
  C  C8  1  0.45694000  0.04251300  0.74824200  1
  C  C9  1  0.54514900  0.95518200  0.24807300  1
  C  C10  1  0.24807300  0.54514900  0.95518200  1
  C  C11  1  0.95518200  0.24807300  0.54514900  1
  C  C12  1  0.50922700  0.88084900  0.68300300  1
  C  C13  1  0.88084900  0.68300300  0.50922700  1
  C  C14  1  0.74247100  0.94200300  0.08567800  1
  C  C15  1  0.68300300  0.50922700  0.88084900  1
  C  C16  1  0.39356100  0.98295100  0.19116900  1
  C  C17  1  0.56859900  0.76369700  0.41568300  1
  C  C18  1  0.08567800  0.74247100  0.94200300  1
  C  C19  1  0.41568300  0.56859900  0.76369700  1
  C  C20  1  0.99913000  0.80701800  0.62180700  1
  C  C21  1  0.76369700  0.41568300  0.56859900  1
  C  C22  1  0.05116800  0.90695300  0.26610700  1
  C  C23  1  0.80701800  0.62180700  0.99913000  1
  C  C24  1  0.19116900  0.39356100  0.98295100  1
  C  C25  1  0.94200300  0.08567800  0.74247100  1
  C  C26  1  0.23433300  0.58176300  0.44620600  1
  C  C27  1  0.98295100  0.19116900  0.39356100  1
  C  C28  1  0.58176300  0.44620600  0.23433300  1
  C  C29  1  0.90695300  0.26610700  0.05116800  1
  C  C30  1  0.44620600  0.23433300  0.58176300  1
  C  C31  1  0.62180700  0.99913000  0.80701800  1
  C  C32  1  0.30592000  0.50032000  0.12207700  1
  C  C33  1  0.26610700  0.05116800  0.90695300  1
  C  C34  1  0.12207700  0.30592000  0.50032000  1
  C  C35  1  0.50032000  0.12207700  0.30592000  1
