# generated using pymatgen
data_Cu2NiC4
_symmetry_space_group_name_H-M   'P 1'
_cell_length_a   8.91459500
_cell_length_b   8.91459500
_cell_length_c   5.89161600
_cell_angle_alpha   90.00000000
_cell_angle_beta   90.00000000
_cell_angle_gamma   90.00000000
_symmetry_Int_Tables_number   1
_chemical_formula_structural   Cu2NiC4
_chemical_formula_sum   'Cu8 Ni4 C16'
_cell_volume   468.20674717
_cell_formula_units_Z   4
loop_
 _symmetry_equiv_pos_site_id
 _symmetry_equiv_pos_as_xyz
  1  'x, y, z'
loop_
 _atom_site_type_symbol
 _atom_site_label
 _atom_site_symmetry_multiplicity
 _atom_site_fract_x
 _atom_site_fract_y
 _atom_site_fract_z
 _atom_site_occupancy
  Ni  Ni0  1  0.50000000  0.00000000  0.25000000  1
  Ni  Ni1  1  0.50000000  0.00000000  0.75000000  1
  Ni  Ni2  1  0.00000000  0.50000000  0.25000000  1
  Ni  Ni3  1  0.00000000  0.50000000  0.75000000  1
  Cu  Cu4  1  0.81106200  0.15233700  0.50000000  1
  Cu  Cu5  1  0.15233700  0.18893800  0.00000000  1
  Cu  Cu6  1  0.65233700  0.31106200  0.00000000  1
  Cu  Cu7  1  0.31106200  0.34766300  0.50000000  1
  Cu  Cu8  1  0.68893800  0.65233700  0.50000000  1
  Cu  Cu9  1  0.34766300  0.68893800  0.00000000  1
  Cu  Cu10  1  0.84766300  0.81106200  0.00000000  1
  Cu  Cu11  1  0.18893800  0.84766300  0.50000000  1
  C  C12  1  0.61919400  0.09117500  0.00000000  1
  C  C13  1  0.59117500  0.11919400  0.50000000  1
  C  C14  1  0.30358400  0.19641600  0.25000000  1
  C  C15  1  0.30358400  0.19641600  0.75000000  1
  C  C16  1  0.80358400  0.30358400  0.25000000  1
  C  C17  1  0.80358400  0.30358400  0.75000000  1
  C  C18  1  0.09117500  0.38080600  0.50000000  1
  C  C19  1  0.11919400  0.40882500  0.00000000  1
  C  C20  1  0.88080600  0.59117500  0.00000000  1
  C  C21  1  0.90882500  0.61919400  0.50000000  1
  C  C22  1  0.19641600  0.69641600  0.25000000  1
  C  C23  1  0.19641600  0.69641600  0.75000000  1
  C  C24  1  0.69641600  0.80358400  0.25000000  1
  C  C25  1  0.69641600  0.80358400  0.75000000  1
  C  C26  1  0.40882500  0.88080600  0.50000000  1
  C  C27  1  0.38080600  0.90882500  0.00000000  1
