# generated using pymatgen
data_Cu11NiC6
_symmetry_space_group_name_H-M   'P 1'
_cell_length_a   4.83752893
_cell_length_b   4.83752893
_cell_length_c   9.69334400
_cell_angle_alpha   90.00000000
_cell_angle_beta   90.00000000
_cell_angle_gamma   90.45955343
_symmetry_Int_Tables_number   1
_chemical_formula_structural   Cu11NiC6
_chemical_formula_sum   'Cu11 Ni1 C6'
_cell_volume   226.83329704
_cell_formula_units_Z   1
loop_
 _symmetry_equiv_pos_site_id
 _symmetry_equiv_pos_as_xyz
  1  'x, y, z'
loop_
 _atom_site_type_symbol
 _atom_site_label
 _atom_site_symmetry_multiplicity
 _atom_site_fract_x
 _atom_site_fract_y
 _atom_site_fract_z
 _atom_site_occupancy
  C  C0  1  0.00941400  0.00941400  0.65140700  1
  C  C1  1  0.00941400  0.00941400  0.34859300  1
  C  C2  1  0.00014700  0.00014700  0.00000000  1
  C  C3  1  0.48062600  0.48062600  0.50000000  1
  C  C4  1  0.50360200  0.50360200  0.83184700  1
  C  C5  1  0.50360200  0.50360200  0.16815300  1
  Ni  Ni6  1  0.19421000  0.19421000  0.50000000  1
  Cu  Cu7  1  0.19909000  0.19909000  0.17216600  1
  Cu  Cu8  1  0.19909000  0.19909000  0.82783400  1
  Cu  Cu9  1  0.70627400  0.29293800  0.66984100  1
  Cu  Cu10  1  0.70627400  0.29293800  0.33015900  1
  Cu  Cu11  1  0.70353500  0.30004300  0.00000000  1
  Cu  Cu12  1  0.29293800  0.70627400  0.66984100  1
  Cu  Cu13  1  0.29293800  0.70627400  0.33015900  1
  Cu  Cu14  1  0.30004300  0.70353500  0.00000000  1
  Cu  Cu15  1  0.78578400  0.78578400  0.50000000  1
  Cu  Cu16  1  0.80651100  0.80651100  0.82561600  1
  Cu  Cu17  1  0.80651100  0.80651100  0.17438400  1
