# generated using pymatgen
data_Cu3NiC12
_symmetry_space_group_name_H-M   'P 1'
_cell_length_a   5.18540996
_cell_length_b   5.96264301
_cell_length_c   10.75287223
_cell_angle_alpha   106.08938426
_cell_angle_beta   85.44782127
_cell_angle_gamma   73.28918068
_symmetry_Int_Tables_number   1
_chemical_formula_structural   Cu3NiC12
_chemical_formula_sum   'Cu6 Ni2 C24'
_cell_volume   301.34768381
_cell_formula_units_Z   2
loop_
 _symmetry_equiv_pos_site_id
 _symmetry_equiv_pos_as_xyz
  1  'x, y, z'
loop_
 _atom_site_type_symbol
 _atom_site_label
 _atom_site_symmetry_multiplicity
 _atom_site_fract_x
 _atom_site_fract_y
 _atom_site_fract_z
 _atom_site_occupancy
  C  C0  1  0.00142200  0.12401600  0.74972700  1
  C  C1  1  0.99975800  0.00001600  0.00074100  1
  C  C2  1  0.99829700  0.25140200  0.50050900  1
  C  C3  1  0.00158200  0.37372500  0.24955000  1
  C  C4  1  0.00027500  0.62498000  0.74916600  1
  C  C5  1  0.99868300  0.50088800  0.00021400  1
  C  C6  1  0.99996200  0.74967200  0.50079700  1
  C  C7  1  0.00001600  0.87531500  0.24929200  1
  Ni  Ni8  1  0.50023400  0.68731600  0.62483800  1
  Ni  Ni9  1  0.49977600  0.93767700  0.12516200  1
  Cu  Cu10  1  0.49982300  0.06242200  0.87498100  1
  Cu  Cu11  1  0.49992400  0.18761800  0.62517900  1
  Cu  Cu12  1  0.49999400  0.31250700  0.37501600  1
  Cu  Cu13  1  0.50021600  0.56257400  0.87498600  1
  Cu  Cu14  1  0.50005500  0.43737200  0.12482700  1
  Cu  Cu15  1  0.49997600  0.81251000  0.37503100  1
  C  C16  1  0.27150800  0.08699400  0.30975700  1
  C  C17  1  0.72950100  0.03732500  0.43921500  1
  C  C18  1  0.26921700  0.33868200  0.81155000  1
  C  C19  1  0.73076400  0.28630800  0.93841500  1
  C  C20  1  0.72776300  0.16149000  0.18889600  1
  C  C21  1  0.27127600  0.21114300  0.06126300  1
  C  C22  1  0.27220800  0.46354100  0.56113300  1
  C  C23  1  0.72875600  0.41384600  0.68870500  1
  C  C24  1  0.27047700  0.58767500  0.31080800  1
  C  C25  1  0.72851100  0.53800200  0.44026600  1
  C  C26  1  0.27256000  0.83618000  0.80911000  1
  C  C27  1  0.72746700  0.78882300  0.94086500  1
  C  C28  1  0.27232800  0.71396700  0.06099500  1
  C  C29  1  0.27128500  0.96167100  0.56129000  1
  C  C30  1  0.72867400  0.66332400  0.18873700  1
  C  C31  1  0.72771400  0.91101800  0.68897500  1
