# generated using pymatgen
data_CuNiC
_symmetry_space_group_name_H-M   'P 1'
_cell_length_a   12.26487500
_cell_length_b   4.75331000
_cell_length_c   4.76836892
_cell_angle_alpha   89.90972524
_cell_angle_beta   90.00000000
_cell_angle_gamma   90.00000000
_symmetry_Int_Tables_number   1
_chemical_formula_structural   CuNiC
_chemical_formula_sum   'Cu8 Ni8 C8'
_cell_volume   277.98961669
_cell_formula_units_Z   8
loop_
 _symmetry_equiv_pos_site_id
 _symmetry_equiv_pos_as_xyz
  1  'x, y, z'
loop_
 _atom_site_type_symbol
 _atom_site_label
 _atom_site_symmetry_multiplicity
 _atom_site_fract_x
 _atom_site_fract_y
 _atom_site_fract_z
 _atom_site_occupancy
  C  C0  1  0.12536900  0.95258700  0.00797600  1
  C  C1  1  0.37552600  0.02764600  0.97069700  1
  C  C2  1  0.62447400  0.02764600  0.97069700  1
  C  C3  1  0.87463100  0.95258700  0.00797600  1
  C  C4  1  0.50000000  0.44522600  0.48084300  1
  C  C5  1  0.00000000  0.53836800  0.49851000  1
  C  C6  1  0.25037300  0.52726000  0.52601100  1
  C  C7  1  0.74962700  0.52726000  0.52601100  1
  Ni  Ni8  1  0.25361100  0.81212300  0.81622800  1
  Ni  Ni9  1  0.74638900  0.81212300  0.81622800  1
  Ni  Ni10  1  0.00000000  0.79906900  0.81865600  1
  Ni  Ni11  1  0.87140800  0.68884900  0.32049800  1
  Ni  Ni12  1  0.12859200  0.68884900  0.32049800  1
  Ni  Ni13  1  0.37304600  0.31056500  0.67799700  1
  Ni  Ni14  1  0.62695400  0.31056500  0.67799700  1
  Ni  Ni15  1  0.50000000  0.18276200  0.16946100  1
  Cu  Cu16  1  0.50000000  0.80112500  0.78024600  1
  Cu  Cu17  1  0.37760800  0.69983100  0.29376900  1
  Cu  Cu18  1  0.62239200  0.69983100  0.29376900  1
  Cu  Cu19  1  0.87604400  0.29990300  0.70981500  1
  Cu  Cu20  1  0.12395600  0.29990300  0.70981500  1
  Cu  Cu21  1  0.75139700  0.20231000  0.19883600  1
  Cu  Cu22  1  0.00000000  0.19130300  0.20863200  1
  Cu  Cu23  1  0.24860300  0.20231000  0.19883600  1
