# generated using pymatgen
data_Cu12Ni3C2
_symmetry_space_group_name_H-M   'P 1'
_cell_length_a   9.07261300
_cell_length_b   9.23258600
_cell_length_c   25.45404600
_cell_angle_alpha   90.00000000
_cell_angle_beta   90.00000000
_cell_angle_gamma   90.00000000
_symmetry_Int_Tables_number   1
_chemical_formula_structural   Cu12Ni3C2
_chemical_formula_sum   'Cu96 Ni24 C16'
_cell_volume   2132.12455792
_cell_formula_units_Z   8
loop_
 _symmetry_equiv_pos_site_id
 _symmetry_equiv_pos_as_xyz
  1  'x, y, z'
loop_
 _atom_site_type_symbol
 _atom_site_label
 _atom_site_symmetry_multiplicity
 _atom_site_fract_x
 _atom_site_fract_y
 _atom_site_fract_z
 _atom_site_occupancy
  C  C0  1  0.00380400  0.38071600  0.06335100  1
  C  C1  1  0.00380400  0.11928400  0.56335100  1
  C  C2  1  0.99098300  0.80403800  0.17960200  1
  C  C3  1  0.99098300  0.69596200  0.67960200  1
  C  C4  1  0.50901700  0.30403800  0.17960200  1
  C  C5  1  0.50901700  0.19596200  0.67960200  1
  C  C6  1  0.49619600  0.61928400  0.56335100  1
  C  C7  1  0.49619600  0.88071600  0.06335100  1
  C  C8  1  0.50380400  0.38071600  0.43664900  1
  C  C9  1  0.50380400  0.11928400  0.93664900  1
  C  C10  1  0.49098300  0.69596200  0.82039800  1
  C  C11  1  0.49098300  0.80403800  0.32039800  1
  C  C12  1  0.00901700  0.30403800  0.32039800  1
  C  C13  1  0.00901700  0.19596200  0.82039800  1
  C  C14  1  0.99619600  0.88071600  0.43664900  1
  C  C15  1  0.99619600  0.61928400  0.93664900  1
  Ni  Ni16  1  0.14408900  0.94488700  0.29715600  1
  Ni  Ni17  1  0.14408900  0.55511300  0.79715600  1
  Ni  Ni18  1  0.14887000  0.26367700  0.44973900  1
  Ni  Ni19  1  0.14887000  0.23632300  0.94973900  1
  Ni  Ni20  1  0.19047200  0.08759100  0.11632600  1
  Ni  Ni21  1  0.19047200  0.41240900  0.61632600  1
  Ni  Ni22  1  0.30952800  0.58759100  0.11632600  1
  Ni  Ni23  1  0.30952800  0.91240900  0.61632600  1
  Ni  Ni24  1  0.35113000  0.76367700  0.44973900  1
  Ni  Ni25  1  0.35113000  0.73632300  0.94973900  1
  Ni  Ni26  1  0.35591100  0.44488700  0.29715600  1
  Ni  Ni27  1  0.35591100  0.05511300  0.79715600  1
  Ni  Ni28  1  0.64408900  0.55511300  0.70284400  1
  Ni  Ni29  1  0.64408900  0.94488700  0.20284400  1
  Ni  Ni30  1  0.64887000  0.26367700  0.05026100  1
  Ni  Ni31  1  0.64887000  0.23632300  0.55026100  1
  Ni  Ni32  1  0.69047200  0.08759100  0.38367400  1
  Ni  Ni33  1  0.69047200  0.41240900  0.88367400  1
  Ni  Ni34  1  0.80952800  0.58759100  0.38367400  1
  Ni  Ni35  1  0.80952800  0.91240900  0.88367400  1
  Ni  Ni36  1  0.85113000  0.76367700  0.05026100  1
  Ni  Ni37  1  0.85113000  0.73632300  0.55026100  1
  Ni  Ni38  1  0.85591100  0.44488700  0.20284400  1
  Ni  Ni39  1  0.85591100  0.05511300  0.70284400  1
  Cu  Cu40  1  0.07164100  0.39679200  0.45989400  1
  Cu  Cu41  1  0.07164100  0.10320800  0.95989400  1
  Cu  Cu42  1  0.09386000  0.09030600  0.27990700  1
  Cu  Cu43  1  0.09386000  0.40969400  0.77990700  1
  Cu  Cu44  1  0.08528400  0.13643000  0.48299300  1
  Cu  Cu45  1  0.08528400  0.36357000  0.98299300  1
  Cu  Cu46  1  0.08998100  0.90596800  0.34976600  1
  Cu  Cu47  1  0.08998100  0.59403200  0.84976600  1
  Cu  Cu48  1  0.08914200  0.17876900  0.08180200  1
  Cu  Cu49  1  0.08914200  0.32123100  0.58180200  1
  Cu  Cu50  1  0.09348600  0.83179700  0.25890500  1
  Cu  Cu51  1  0.09348600  0.66820300  0.75890500  1
  Cu  Cu52  1  0.09473100  0.01556000  0.15618400  1
  Cu  Cu53  1  0.09473100  0.48444000  0.65618400  1
  Cu  Cu54  1  0.13941900  0.21263000  0.39408400  1
  Cu  Cu55  1  0.13941900  0.28737000  0.89408400  1
  Cu  Cu56  1  0.18892100  0.44733400  0.29688000  1
  Cu  Cu57  1  0.18892100  0.05266600  0.79688000  1
  Cu  Cu58  1  0.20225500  0.68047200  0.14344800  1
  Cu  Cu59  1  0.20225500  0.81952800  0.64344800  1
  Cu  Cu60  1  0.19025800  0.76656400  0.46579100  1
  Cu  Cu61  1  0.19025800  0.73343600  0.96579100  1
  Cu  Cu62  1  0.24008000  0.01895000  0.58095700  1
  Cu  Cu63  1  0.24008000  0.48105000  0.08095700  1
  Cu  Cu64  1  0.25992000  0.51895000  0.58095700  1
  Cu  Cu65  1  0.25992000  0.98105000  0.08095700  1
  Cu  Cu66  1  0.30974200  0.23343600  0.96579100  1
  Cu  Cu67  1  0.30974200  0.26656400  0.46579100  1
  Cu  Cu68  1  0.29774500  0.18047200  0.14344800  1
  Cu  Cu69  1  0.29774500  0.31952800  0.64344800  1
  Cu  Cu70  1  0.31107900  0.94733400  0.29688000  1
  Cu  Cu71  1  0.31107900  0.55266600  0.79688000  1
  Cu  Cu72  1  0.36058100  0.71263000  0.39408400  1
  Cu  Cu73  1  0.36058100  0.78737000  0.89408400  1
  Cu  Cu74  1  0.40526900  0.98444000  0.65618400  1
  Cu  Cu75  1  0.40526900  0.51556000  0.15618400  1
  Cu  Cu76  1  0.40651400  0.33179700  0.25890500  1
  Cu  Cu77  1  0.40651400  0.16820300  0.75890500  1
  Cu  Cu78  1  0.41085800  0.67876900  0.08180200  1
  Cu  Cu79  1  0.41085800  0.82123100  0.58180200  1
  Cu  Cu80  1  0.41001900  0.09403200  0.84976600  1
  Cu  Cu81  1  0.41001900  0.40596800  0.34976600  1
  Cu  Cu82  1  0.41471600  0.86357000  0.98299300  1
  Cu  Cu83  1  0.41471600  0.63643000  0.48299300  1
  Cu  Cu84  1  0.40614000  0.59030600  0.27990700  1
  Cu  Cu85  1  0.40614000  0.90969400  0.77990700  1
  Cu  Cu86  1  0.42835900  0.60320800  0.95989400  1
  Cu  Cu87  1  0.42835900  0.89679200  0.45989400  1
  Cu  Cu88  1  0.57164100  0.39679200  0.04010600  1
  Cu  Cu89  1  0.57164100  0.10320800  0.54010600  1
  Cu  Cu90  1  0.59386000  0.09030600  0.22009300  1
  Cu  Cu91  1  0.59386000  0.40969400  0.72009300  1
  Cu  Cu92  1  0.58528400  0.13643000  0.01700700  1
  Cu  Cu93  1  0.58528400  0.36357000  0.51700700  1
  Cu  Cu94  1  0.58998100  0.59403200  0.65023400  1
  Cu  Cu95  1  0.58998100  0.90596800  0.15023400  1
  Cu  Cu96  1  0.58914200  0.17876900  0.41819800  1
  Cu  Cu97  1  0.58914200  0.32123100  0.91819800  1
  Cu  Cu98  1  0.59348600  0.83179700  0.24109500  1
  Cu  Cu99  1  0.59348600  0.66820300  0.74109500  1
  Cu  Cu100  1  0.59473100  0.01556000  0.34381600  1
  Cu  Cu101  1  0.59473100  0.48444000  0.84381600  1
  Cu  Cu102  1  0.63941900  0.21263000  0.10591600  1
  Cu  Cu103  1  0.63941900  0.28737000  0.60591600  1
  Cu  Cu104  1  0.68892100  0.44733400  0.20312000  1
  Cu  Cu105  1  0.68892100  0.05266600  0.70312000  1
  Cu  Cu106  1  0.70225500  0.68047200  0.35655200  1
  Cu  Cu107  1  0.70225500  0.81952800  0.85655200  1
  Cu  Cu108  1  0.69025800  0.76656400  0.03420900  1
  Cu  Cu109  1  0.69025800  0.73343600  0.53420900  1
  Cu  Cu110  1  0.74008000  0.48105000  0.41904300  1
  Cu  Cu111  1  0.74008000  0.01895000  0.91904300  1
  Cu  Cu112  1  0.75992000  0.98105000  0.41904300  1
  Cu  Cu113  1  0.75992000  0.51895000  0.91904300  1
  Cu  Cu114  1  0.80974200  0.26656400  0.03420900  1
  Cu  Cu115  1  0.80974200  0.23343600  0.53420900  1
  Cu  Cu116  1  0.79774500  0.18047200  0.35655200  1
  Cu  Cu117  1  0.79774500  0.31952800  0.85655200  1
  Cu  Cu118  1  0.81107900  0.55266600  0.70312000  1
  Cu  Cu119  1  0.81107900  0.94733400  0.20312000  1
  Cu  Cu120  1  0.86058100  0.71263000  0.10591600  1
  Cu  Cu121  1  0.86058100  0.78737000  0.60591600  1
  Cu  Cu122  1  0.90526900  0.51556000  0.34381600  1
  Cu  Cu123  1  0.90526900  0.98444000  0.84381600  1
  Cu  Cu124  1  0.90651400  0.33179700  0.24109500  1
  Cu  Cu125  1  0.90651400  0.16820300  0.74109500  1
  Cu  Cu126  1  0.91085800  0.67876900  0.41819800  1
  Cu  Cu127  1  0.91085800  0.82123100  0.91819800  1
  Cu  Cu128  1  0.91001900  0.40596800  0.15023400  1
  Cu  Cu129  1  0.91001900  0.09403200  0.65023400  1
  Cu  Cu130  1  0.91471600  0.63643000  0.01700700  1
  Cu  Cu131  1  0.91471600  0.86357000  0.51700700  1
  Cu  Cu132  1  0.90614000  0.59030600  0.22009300  1
  Cu  Cu133  1  0.90614000  0.90969400  0.72009300  1
  Cu  Cu134  1  0.92835900  0.60320800  0.54010600  1
  Cu  Cu135  1  0.92835900  0.89679200  0.04010600  1
