# generated using pymatgen
data_Cu(NiC2)3
_symmetry_space_group_name_H-M   'P 1'
_cell_length_a   7.54766911
_cell_length_b   7.54564980
_cell_length_c   9.21588176
_cell_angle_alpha   70.72898826
_cell_angle_beta   111.66261694
_cell_angle_gamma   81.59616299
_symmetry_Int_Tables_number   1
_chemical_formula_structural   Cu(NiC2)3
_chemical_formula_sum   'Cu4 Ni12 C24'
_cell_volume   438.45449874
_cell_formula_units_Z   4
loop_
 _symmetry_equiv_pos_site_id
 _symmetry_equiv_pos_as_xyz
  1  'x, y, z'
loop_
 _atom_site_type_symbol
 _atom_site_label
 _atom_site_symmetry_multiplicity
 _atom_site_fract_x
 _atom_site_fract_y
 _atom_site_fract_z
 _atom_site_occupancy
  C  C0  1  0.24326100  0.51823200  0.72502600  1
  C  C1  1  0.74327200  0.51822900  0.22503900  1
  C  C2  1  0.38175700  0.23178500  0.14998600  1
  C  C3  1  0.88169100  0.23176200  0.64994600  1
  C  C4  1  0.89926600  0.46861400  0.87458200  1
  C  C5  1  0.39930400  0.46854900  0.37460200  1
  C  C6  1  0.78188300  0.72532300  0.50044200  1
  C  C7  1  0.28183900  0.72534800  0.00036200  1
  C  C8  1  0.22576000  0.28141600  0.50044400  1
  C  C9  1  0.72571300  0.28144500  0.00036300  1
  C  C10  1  0.34319100  0.02468100  0.87458900  1
  C  C11  1  0.84313900  0.02470400  0.37460800  1
  C  C12  1  0.96835500  0.78536100  0.74224000  1
  C  C13  1  0.46847500  0.78521200  0.24225300  1
  C  C14  1  0.52756800  0.22609600  0.74224000  1
  C  C15  1  0.02742600  0.22620600  0.24224900  1
  C  C16  1  0.15659900  0.96476500  0.63277900  1
  C  C17  1  0.65662100  0.96472900  0.13273900  1
  C  C18  1  0.59754700  0.52382600  0.63279300  1
  C  C19  1  0.09747100  0.52388600  0.13275400  1
  C  C20  1  0.62895500  0.74927000  0.87966300  1
  C  C21  1  0.99635900  0.00097500  0.99534700  1
  C  C22  1  0.12885600  0.74914900  0.37968500  1
  C  C23  1  0.49564800  0.00054100  0.49510200  1
  Ni  Ni24  1  0.71301100  0.72454000  0.68751000  1
  Ni  Ni25  1  0.21307700  0.72454100  0.18750300  1
  Ni  Ni26  1  0.41199800  0.02542200  0.68751300  1
  Ni  Ni27  1  0.91199400  0.02549700  0.18749700  1
  Ni  Ni28  1  0.33866400  0.47684000  0.56346600  1
  Ni  Ni29  1  0.83865300  0.47679900  0.06350500  1
  Ni  Ni30  1  0.04028400  0.77517300  0.56347400  1
  Ni  Ni31  1  0.54028500  0.77512000  0.06350700  1
  Ni  Ni32  1  0.08482000  0.97491600  0.81155900  1
  Ni  Ni33  1  0.58472800  0.97482900  0.31149800  1
  Ni  Ni34  1  0.78641800  0.27318500  0.81157700  1
  Ni  Ni35  1  0.28626200  0.27316200  0.31151200  1
  Cu  Cu36  1  0.16814100  0.51924500  0.93750600  1
  Cu  Cu37  1  0.66823000  0.51914000  0.43752000  1
  Cu  Cu38  1  0.45677900  0.23070600  0.93750700  1
  Cu  Cu39  1  0.95669700  0.23078300  0.43751100  1
