# generated using pymatgen
data_Cu4NiC10
_symmetry_space_group_name_H-M   'P 1'
_cell_length_a   5.84580539
_cell_length_b   5.84580539
_cell_length_c   24.15565984
_cell_angle_alpha   83.24415893
_cell_angle_beta   83.24415893
_cell_angle_gamma   59.69530369
_symmetry_Int_Tables_number   1
_chemical_formula_structural   Cu4NiC10
_chemical_formula_sum   'Cu16 Ni4 C40'
_cell_volume   706.09787810
_cell_formula_units_Z   4
loop_
 _symmetry_equiv_pos_site_id
 _symmetry_equiv_pos_as_xyz
  1  'x, y, z'
loop_
 _atom_site_type_symbol
 _atom_site_label
 _atom_site_symmetry_multiplicity
 _atom_site_fract_x
 _atom_site_fract_y
 _atom_site_fract_z
 _atom_site_occupancy
  Ni  Ni0  1  0.29979800  0.29979800  0.10018800  1
  Ni  Ni1  1  0.70020200  0.70020200  0.89981200  1
  Ni  Ni2  1  0.29999700  0.29999700  0.60004100  1
  Ni  Ni3  1  0.70000300  0.70000300  0.39995900  1
  Cu  Cu4  1  0.50000000  0.50000000  0.00000000  1
  Cu  Cu5  1  0.50000000  0.00000000  0.00000000  1
  Cu  Cu6  1  0.00000000  0.50000000  0.00000000  1
  Cu  Cu7  1  0.90026800  0.90026800  0.79958700  1
  Cu  Cu8  1  0.09936900  0.09936900  0.70008600  1
  Cu  Cu9  1  0.90000500  0.40017600  0.79953900  1
  Cu  Cu10  1  0.80004700  0.29979100  0.60001600  1
  Cu  Cu11  1  0.40017600  0.90000500  0.79953900  1
  Cu  Cu12  1  0.29979100  0.80004700  0.60001600  1
  Cu  Cu13  1  0.50000000  0.50000000  0.50000000  1
  Cu  Cu14  1  0.19995300  0.70020900  0.39998400  1
  Cu  Cu15  1  0.70020900  0.19995300  0.39998400  1
  Cu  Cu16  1  0.09973200  0.09973200  0.20041300  1
  Cu  Cu17  1  0.90063100  0.90063100  0.29991400  1
  Cu  Cu18  1  0.59982400  0.09999500  0.20046100  1
  Cu  Cu19  1  0.09999500  0.59982400  0.20046100  1
  C  C20  1  0.83074800  0.38483800  0.95395500  1
  C  C21  1  0.38483800  0.83074800  0.95395500  1
  C  C22  1  0.61516200  0.16925200  0.04604500  1
  C  C23  1  0.16925200  0.61516200  0.04604500  1
  C  C24  1  0.56954300  0.56954300  0.84558100  1
  C  C25  1  0.34676100  0.34676100  0.95933300  1
  C  C26  1  0.16971200  0.16971200  0.04598900  1
  C  C27  1  0.05342600  0.05342600  0.84036100  1
  C  C28  1  0.83028800  0.83028800  0.95401100  1
  C  C29  1  0.65323900  0.65323900  0.04066700  1
  C  C30  1  0.22852100  0.78935100  0.75289600  1
  C  C31  1  0.78935100  0.22852100  0.75289600  1
  C  C32  1  0.56891000  0.01571400  0.84570900  1
  C  C33  1  0.01571400  0.56891000  0.84570900  1
  C  C34  1  0.74695600  0.74695600  0.75898100  1
  C  C35  1  0.97137300  0.97137300  0.64668100  1
  C  C36  1  0.45583000  0.45583000  0.64140600  1
  C  C37  1  0.22806100  0.22806100  0.75270300  1
  C  C38  1  0.63406900  0.18807500  0.55230400  1
  C  C39  1  0.18807500  0.63406900  0.55230400  1
  C  C40  1  0.96529500  0.41171700  0.64785700  1
  C  C41  1  0.41171700  0.96529500  0.64785700  1
  C  C42  1  0.81192500  0.36593100  0.44769600  1
  C  C43  1  0.36593100  0.81192500  0.44769600  1
  C  C44  1  0.37180900  0.37180900  0.44682800  1
  C  C45  1  0.54417000  0.54417000  0.35859400  1
  C  C46  1  0.14419900  0.14419900  0.55869500  1
  C  C47  1  0.02862700  0.02862700  0.35331900  1
  C  C48  1  0.62819100  0.62819100  0.55317200  1
  C  C49  1  0.85580100  0.85580100  0.44130500  1
  C  C50  1  0.03470500  0.58828300  0.35214300  1
  C  C51  1  0.58828300  0.03470500  0.35214300  1
  C  C52  1  0.21064900  0.77147900  0.24710400  1
  C  C53  1  0.77147900  0.21064900  0.24710400  1
  C  C54  1  0.77193900  0.77193900  0.24729700  1
  C  C55  1  0.94657400  0.94657400  0.15963900  1
  C  C56  1  0.25304400  0.25304400  0.24101900  1
  C  C57  1  0.43045700  0.43045700  0.15441900  1
  C  C58  1  0.98428600  0.43109000  0.15429100  1
  C  C59  1  0.43109000  0.98428600  0.15429100  1
