# generated using pymatgen
data_Cu5NiC30
_symmetry_space_group_name_H-M   'P 1'
_cell_length_a   8.43542583
_cell_length_b   8.43542583
_cell_length_c   8.43542550
_cell_angle_alpha   61.81147967
_cell_angle_beta   61.81147967
_cell_angle_gamma   61.81147603
_symmetry_Int_Tables_number   1
_chemical_formula_structural   Cu5NiC30
_chemical_formula_sum   'Cu5 Ni1 C30'
_cell_volume   441.65052688
_cell_formula_units_Z   1
loop_
 _symmetry_equiv_pos_site_id
 _symmetry_equiv_pos_as_xyz
  1  'x, y, z'
loop_
 _atom_site_type_symbol
 _atom_site_label
 _atom_site_symmetry_multiplicity
 _atom_site_fract_x
 _atom_site_fract_y
 _atom_site_fract_z
 _atom_site_occupancy
  Ni  Ni0  1  0.85491300  0.85491300  0.85491300  1
  Cu  Cu1  1  0.00085200  0.00085200  0.00085200  1
  Cu  Cu2  1  0.35396600  0.35396600  0.35396600  1
  Cu  Cu3  1  0.49949400  0.49949400  0.49949400  1
  Cu  Cu4  1  0.14627600  0.14627600  0.14627600  1
  Cu  Cu5  1  0.64567400  0.64567400  0.64567400  1
  C  C6  1  0.74907500  0.04630300  0.45325300  1
  C  C7  1  0.04630300  0.45325300  0.74907500  1
  C  C8  1  0.45325300  0.74907500  0.04630300  1
  C  C9  1  0.54768600  0.24879200  0.95360900  1
  C  C10  1  0.95360900  0.54768600  0.24879200  1
  C  C11  1  0.24879200  0.95360900  0.54768600  1
  C  C12  1  0.89399200  0.49755100  0.67233200  1
  C  C13  1  0.49755100  0.67233200  0.89399200  1
  C  C14  1  0.67233200  0.89399200  0.49755100  1
  C  C15  1  0.90609200  0.05660800  0.25199700  1
  C  C16  1  0.82144600  0.00839200  0.60569100  1
  C  C17  1  0.59557800  0.25096800  0.43557400  1
  C  C18  1  0.05660800  0.25199700  0.90609200  1
  C  C19  1  0.25096800  0.43557400  0.59557800  1
  C  C20  1  0.39302400  0.17519200  0.99872800  1
  C  C21  1  0.43557400  0.59557800  0.25096800  1
  C  C22  1  0.75028500  0.09577500  0.94150900  1
  C  C23  1  0.99872800  0.39302400  0.17519200  1
  C  C24  1  0.00839200  0.60569100  0.82144600  1
  C  C25  1  0.25199700  0.90609200  0.05660800  1
  C  C26  1  0.56116700  0.40289800  0.75038300  1
  C  C27  1  0.60569100  0.82144600  0.00839200  1
  C  C28  1  0.75038300  0.56116700  0.40289800  1
  C  C29  1  0.94150900  0.75028500  0.09577500  1
  C  C30  1  0.40289800  0.75038300  0.56116700  1
  C  C31  1  0.17519200  0.99872800  0.39302400  1
  C  C32  1  0.09577500  0.94150900  0.75028500  1
  C  C33  1  0.32105900  0.10951200  0.50435600  1
  C  C34  1  0.50435600  0.32105900  0.10951200  1
  C  C35  1  0.10951200  0.50435600  0.32105900  1
