# generated using pymatgen
data_CuNiC10
_symmetry_space_group_name_H-M   'P 1'
_cell_length_a   5.96661700
_cell_length_b   5.04909800
_cell_length_c   10.00434428
_cell_angle_alpha   86.36081138
_cell_angle_beta   90.00000000
_cell_angle_gamma   90.00000000
_symmetry_Int_Tables_number   1
_chemical_formula_structural   CuNiC10
_chemical_formula_sum   'Cu2 Ni2 C20'
_cell_volume   300.78347462
_cell_formula_units_Z   2
loop_
 _symmetry_equiv_pos_site_id
 _symmetry_equiv_pos_as_xyz
  1  'x, y, z'
loop_
 _atom_site_type_symbol
 _atom_site_label
 _atom_site_symmetry_multiplicity
 _atom_site_fract_x
 _atom_site_fract_y
 _atom_site_fract_z
 _atom_site_occupancy
  Ni  Ni0  1  0.75000000  0.45908000  0.78260400  1
  Ni  Ni1  1  0.25000000  0.54092000  0.21739600  1
  Cu  Cu2  1  0.25000000  0.86756100  0.69617800  1
  Cu  Cu3  1  0.75000000  0.13243900  0.30382200  1
  C  C4  1  0.25000000  0.40311500  0.89573300  1
  C  C5  1  0.75000000  0.94156900  0.60180600  1
  C  C6  1  0.25000000  0.05843100  0.39819400  1
  C  C7  1  0.75000000  0.59688500  0.10426700  1
  C  C8  1  0.75000000  0.64323100  0.95090400  1
  C  C9  1  0.25000000  0.71358200  0.86732200  1
  C  C10  1  0.03953500  0.28405800  0.83166700  1
  C  C11  1  0.46046500  0.28405800  0.83166700  1
  C  C12  1  0.94397400  0.77128900  0.67351200  1
  C  C13  1  0.55602600  0.77128900  0.67351200  1
  C  C14  1  0.75000000  0.23509100  0.62388800  1
  C  C15  1  0.25000000  0.11010300  0.54879100  1
  C  C16  1  0.75000000  0.88989700  0.45120900  1
  C  C17  1  0.25000000  0.76490900  0.37611200  1
  C  C18  1  0.05602600  0.22871100  0.32648800  1
  C  C19  1  0.44397400  0.22871100  0.32648800  1
  C  C20  1  0.53953500  0.71594200  0.16833300  1
  C  C21  1  0.96046500  0.71594200  0.16833300  1
  C  C22  1  0.75000000  0.28641800  0.13267800  1
  C  C23  1  0.25000000  0.35676900  0.04909600  1
