# generated using pymatgen
data_Cu3Ni3C22
_symmetry_space_group_name_H-M   'P 1'
_cell_length_a   5.87328452
_cell_length_b   5.87328452
_cell_length_c   9.52672145
_cell_angle_alpha   88.97722219
_cell_angle_beta   88.97722219
_cell_angle_gamma   60.22685534
_symmetry_Int_Tables_number   1
_chemical_formula_structural   Cu3Ni3C22
_chemical_formula_sum   'Cu3 Ni3 C22'
_cell_volume   285.18845375
_cell_formula_units_Z   1
loop_
 _symmetry_equiv_pos_site_id
 _symmetry_equiv_pos_as_xyz
  1  'x, y, z'
loop_
 _atom_site_type_symbol
 _atom_site_label
 _atom_site_symmetry_multiplicity
 _atom_site_fract_x
 _atom_site_fract_y
 _atom_site_fract_z
 _atom_site_occupancy
  C  C0  1  0.34040300  0.34040300  0.89669000  1
  C  C1  1  0.99781800  0.99781800  0.99420100  1
  C  C2  1  0.99885100  0.99885100  0.49334200  1
  C  C3  1  0.67171000  0.67171000  0.39692400  1
  C  C4  1  0.33607600  0.33607600  0.49665600  1
  C  C5  1  0.66808100  0.66808100  0.99496300  1
  Ni  Ni6  1  0.17273700  0.17273700  0.21239500  1
  Ni  Ni7  1  0.34091400  0.83577200  0.71500400  1
  Ni  Ni8  1  0.83577200  0.34091400  0.71500400  1
  Cu  Cu9  1  0.16612600  0.66083200  0.21706100  1
  Cu  Cu10  1  0.66083200  0.16612600  0.21706100  1
  Cu  Cu11  1  0.83069900  0.83069900  0.71395700  1
  C  C12  1  0.15382300  0.66965700  0.60001100  1
  C  C13  1  0.48309500  0.48309500  0.34567500  1
  C  C14  1  0.34192100  0.34192100  0.10604300  1
  C  C15  1  0.99746500  0.99746500  0.30352100  1
  C  C16  1  0.99466600  0.99466600  0.80656500  1
  C  C17  1  0.66965700  0.15382300  0.60001100  1
  C  C18  1  0.04203900  0.48778900  0.34338000  1
  C  C19  1  0.48778900  0.04203900  0.34338000  1
  C  C20  1  0.83263500  0.83263500  0.09718300  1
  C  C21  1  0.16894400  0.16894400  0.59136500  1
  C  C22  1  0.53522000  0.96838500  0.83513200  1
  C  C23  1  0.96838500  0.53522000  0.83513200  1
  C  C24  1  0.67554400  0.67554400  0.60608900  1
  C  C25  1  0.33462400  0.83988700  0.09276400  1
  C  C26  1  0.52505500  0.52505500  0.84750300  1
  C  C27  1  0.83988700  0.33462400  0.09276400  1
