# generated using pymatgen
data_Cu4Ni6C23
_symmetry_space_group_name_H-M   'P 1'
_cell_length_a   7.60652700
_cell_length_b   10.92753800
_cell_length_c   21.19026200
_cell_angle_alpha   90.00000000
_cell_angle_beta   90.00000000
_cell_angle_gamma   90.00000000
_symmetry_Int_Tables_number   1
_chemical_formula_structural   Cu4Ni6C23
_chemical_formula_sum   'Cu16 Ni24 C92'
_cell_volume   1761.34756369
_cell_formula_units_Z   4
loop_
 _symmetry_equiv_pos_site_id
 _symmetry_equiv_pos_as_xyz
  1  'x, y, z'
loop_
 _atom_site_type_symbol
 _atom_site_label
 _atom_site_symmetry_multiplicity
 _atom_site_fract_x
 _atom_site_fract_y
 _atom_site_fract_z
 _atom_site_occupancy
  C  C0  1  0.59722000  0.36129500  0.16639200  1
  C  C1  1  0.90278000  0.36129500  0.33360800  1
  C  C2  1  0.09722000  0.13870500  0.83360800  1
  C  C3  1  0.40278000  0.13870500  0.66639200  1
  C  C4  1  0.40278000  0.63870500  0.83360800  1
  C  C5  1  0.09722000  0.63870500  0.66639200  1
  C  C6  1  0.90278000  0.86129500  0.16639200  1
  C  C7  1  0.59722000  0.86129500  0.33360800  1
  C  C8  1  0.22511100  0.66131600  0.44413600  1
  C  C9  1  0.27488900  0.66131600  0.05586400  1
  C  C10  1  0.72511100  0.83868400  0.55586400  1
  C  C11  1  0.77488900  0.83868400  0.94413600  1
  C  C12  1  0.77488900  0.33868400  0.55586400  1
  C  C13  1  0.72511100  0.33868400  0.94413600  1
  C  C14  1  0.27488900  0.16131600  0.44413600  1
  C  C15  1  0.22511100  0.16131600  0.05586400  1
  C  C16  1  0.25000000  0.65678300  0.25000000  1
  C  C17  1  0.75000000  0.84321700  0.75000000  1
  C  C18  1  0.75000000  0.34321700  0.75000000  1
  C  C19  1  0.25000000  0.15678300  0.25000000  1
  Ni  Ni20  1  0.59862400  0.94759200  0.07201800  1
  Ni  Ni21  1  0.90137600  0.94759200  0.42798200  1
  Ni  Ni22  1  0.09862400  0.55240800  0.92798200  1
  Ni  Ni23  1  0.40137600  0.55240800  0.57201800  1
  Ni  Ni24  1  0.40137600  0.05240800  0.92798200  1
  Ni  Ni25  1  0.09862400  0.05240800  0.57201800  1
  Ni  Ni26  1  0.90137600  0.44759200  0.07201800  1
  Ni  Ni27  1  0.59862400  0.44759200  0.42798200  1
  Ni  Ni28  1  0.59086000  0.14949500  0.28706300  1
  Ni  Ni29  1  0.90914000  0.14949500  0.21293700  1
  Ni  Ni30  1  0.09086000  0.35050500  0.71293700  1
  Ni  Ni31  1  0.40914000  0.35050500  0.78706300  1
  Ni  Ni32  1  0.40914000  0.85050500  0.71293700  1
  Ni  Ni33  1  0.09086000  0.85050500  0.78706300  1
  Ni  Ni34  1  0.90914000  0.64949500  0.28706300  1
  Ni  Ni35  1  0.59086000  0.64949500  0.21293700  1
  Ni  Ni36  1  0.56220500  0.07652200  0.22252800  1
  Ni  Ni37  1  0.93779500  0.07652200  0.27747200  1
  Ni  Ni38  1  0.06220500  0.42347800  0.77747200  1
  Ni  Ni39  1  0.43779500  0.42347800  0.72252800  1
  Ni  Ni40  1  0.43779500  0.92347800  0.77747200  1
  Ni  Ni41  1  0.06220500  0.92347800  0.72252800  1
  Ni  Ni42  1  0.93779500  0.57652200  0.22252800  1
  Ni  Ni43  1  0.56220500  0.57652200  0.27747200  1
  Cu  Cu44  1  0.76211800  0.11321000  0.07209900  1
  Cu  Cu45  1  0.73788200  0.11321000  0.42790100  1
  Cu  Cu46  1  0.26211800  0.38679000  0.92790100  1
  Cu  Cu47  1  0.23788200  0.38679000  0.57209900  1
  Cu  Cu48  1  0.23788200  0.88679000  0.92790100  1
  Cu  Cu49  1  0.26211800  0.88679000  0.57209900  1
  Cu  Cu50  1  0.73788200  0.61321000  0.07209900  1
  Cu  Cu51  1  0.76211800  0.61321000  0.42790100  1
  Cu  Cu52  1  0.36924600  0.90766600  0.16167800  1
  Cu  Cu53  1  0.13075400  0.90766600  0.33832200  1
  Cu  Cu54  1  0.86924600  0.59233400  0.83832200  1
  Cu  Cu55  1  0.63075400  0.59233400  0.66167800  1
  Cu  Cu56  1  0.63075400  0.09233400  0.83832200  1
  Cu  Cu57  1  0.86924600  0.09233400  0.66167800  1
  Cu  Cu58  1  0.13075400  0.40766600  0.16167800  1
  Cu  Cu59  1  0.36924600  0.40766600  0.33832200  1
  C  C60  1  0.59292500  0.17664200  0.07618100  1
  C  C61  1  0.90707500  0.17664200  0.42381900  1
  C  C62  1  0.09292500  0.32335800  0.92381900  1
  C  C63  1  0.40707500  0.32335800  0.57618100  1
  C  C64  1  0.40707500  0.82335800  0.92381900  1
  C  C65  1  0.09292500  0.82335800  0.57618100  1
  C  C66  1  0.90707500  0.67664200  0.07618100  1
  C  C67  1  0.59292500  0.67664200  0.42381900  1
  C  C68  1  0.87570600  0.15476900  0.02082800  1
  C  C69  1  0.62429400  0.15476900  0.47917200  1
  C  C70  1  0.37570600  0.34523100  0.97917200  1
  C  C71  1  0.12429400  0.34523100  0.52082800  1
  C  C72  1  0.12429400  0.84523100  0.97917200  1
  C  C73  1  0.37570600  0.84523100  0.52082800  1
  C  C74  1  0.62429400  0.65476900  0.02082800  1
  C  C75  1  0.87570600  0.65476900  0.47917200  1
  C  C76  1  0.85570400  0.10954500  0.13330500  1
  C  C77  1  0.64429600  0.10954500  0.36669500  1
  C  C78  1  0.35570400  0.39045500  0.86669500  1
  C  C79  1  0.14429600  0.39045500  0.63330500  1
  C  C80  1  0.14429600  0.89045500  0.86669500  1
  C  C81  1  0.35570400  0.89045500  0.63330500  1
  C  C82  1  0.64429600  0.60954500  0.13330500  1
  C  C83  1  0.85570400  0.60954500  0.36669500  1
  C  C84  1  0.72099100  0.97249100  0.05541900  1
  C  C85  1  0.77900900  0.97249100  0.44458100  1
  C  C86  1  0.22099100  0.52750900  0.94458100  1
  C  C87  1  0.27900900  0.52750900  0.55541900  1
  C  C88  1  0.27900900  0.02750900  0.94458100  1
  C  C89  1  0.22099100  0.02750900  0.55541900  1
  C  C90  1  0.77900900  0.47249100  0.05541900  1
  C  C91  1  0.72099100  0.47249100  0.44458100  1
  C  C92  1  0.26806500  0.79276800  0.17566400  1
  C  C93  1  0.23193500  0.79276800  0.32433600  1
  C  C94  1  0.76806500  0.70723200  0.82433600  1
  C  C95  1  0.73193500  0.70723200  0.67566400  1
  C  C96  1  0.73193500  0.20723200  0.82433600  1
  C  C97  1  0.76806500  0.20723200  0.67566400  1
  C  C98  1  0.23193500  0.29276800  0.17566400  1
  C  C99  1  0.26806500  0.29276800  0.32433600  1
  C  C100  1  0.25167900  0.01441000  0.17581300  1
  C  C101  1  0.24832100  0.01441000  0.32418700  1
  C  C102  1  0.75167900  0.48559000  0.82418700  1
  C  C103  1  0.74832100  0.48559000  0.67581300  1
  C  C104  1  0.74832100  0.98559000  0.82418700  1
  C  C105  1  0.75167900  0.98559000  0.67581300  1
  C  C106  1  0.24832100  0.51441000  0.17581300  1
  C  C107  1  0.25167900  0.51441000  0.32418700  1
  C  C108  1  0.41178400  0.90695100  0.09303900  1
  C  C109  1  0.08821600  0.90695100  0.40696100  1
  C  C110  1  0.91178400  0.59304900  0.90696100  1
  C  C111  1  0.58821600  0.59304900  0.59303900  1
  C  C112  1  0.58821600  0.09304900  0.90696100  1
  C  C113  1  0.91178400  0.09304900  0.59303900  1
  C  C114  1  0.08821600  0.40695100  0.09303900  1
  C  C115  1  0.41178400  0.40695100  0.40696100  1
  C  C116  1  0.53290000  0.91528800  0.20006800  1
  C  C117  1  0.96710000  0.91528800  0.29993200  1
  C  C118  1  0.03290000  0.58471200  0.79993200  1
  C  C119  1  0.46710000  0.58471200  0.70006800  1
  C  C120  1  0.46710000  0.08471200  0.79993200  1
  C  C121  1  0.03290000  0.08471200  0.70006800  1
  C  C122  1  0.96710000  0.41528800  0.20006800  1
  C  C123  1  0.53290000  0.41528800  0.29993200  1
  C  C124  1  0.54135300  0.15607500  0.24390600  1
  C  C125  1  0.95864700  0.15607500  0.25609400  1
  C  C126  1  0.04135300  0.34392500  0.75609400  1
  C  C127  1  0.45864700  0.34392500  0.74390600  1
  C  C128  1  0.45864700  0.84392500  0.75609400  1
  C  C129  1  0.04135300  0.84392500  0.74390600  1
  C  C130  1  0.95864700  0.65607500  0.24390600  1
  C  C131  1  0.54135300  0.65607500  0.25609400  1
