# generated using pymatgen
data_Cu3NiC10
_symmetry_space_group_name_H-M   'P 1'
_cell_length_a   5.87620765
_cell_length_b   5.87620765
_cell_length_c   9.63638900
_cell_angle_alpha   90.00000000
_cell_angle_beta   90.00000000
_cell_angle_gamma   119.99999604
_symmetry_Int_Tables_number   1
_chemical_formula_structural   Cu3NiC10
_chemical_formula_sum   'Cu6 Ni2 C20'
_cell_volume   288.16367919
_cell_formula_units_Z   2
loop_
 _symmetry_equiv_pos_site_id
 _symmetry_equiv_pos_as_xyz
  1  'x, y, z'
loop_
 _atom_site_type_symbol
 _atom_site_label
 _atom_site_symmetry_multiplicity
 _atom_site_fract_x
 _atom_site_fract_y
 _atom_site_fract_z
 _atom_site_occupancy
  C  C0  1  0.33333300  0.66666700  0.89391500  1
  C  C1  1  0.00000000  0.00000000  0.99241200  1
  C  C2  1  0.00000000  0.00000000  0.49241200  1
  C  C3  1  0.66666700  0.33333300  0.39391500  1
  Ni  Ni4  1  0.33333300  0.66666700  0.49612600  1
  Ni  Ni5  1  0.66666700  0.33333300  0.99612600  1
  Cu  Cu6  1  0.16852100  0.83147900  0.21540700  1
  Cu  Cu7  1  0.16852100  0.33704200  0.21540700  1
  Cu  Cu8  1  0.66295800  0.83147900  0.21540700  1
  Cu  Cu9  1  0.33704200  0.16852100  0.71540700  1
  Cu  Cu10  1  0.83147900  0.66295800  0.71540700  1
  Cu  Cu11  1  0.83147900  0.16852100  0.71540700  1
  C  C12  1  0.16389400  0.83610600  0.59262200  1
  C  C13  1  0.03414300  0.51707200  0.34240000  1
  C  C14  1  0.33333300  0.66666700  0.11818300  1
  C  C15  1  0.00000000  0.00000000  0.30254200  1
  C  C16  1  0.00000000  0.00000000  0.80254200  1
  C  C17  1  0.16389400  0.32778800  0.59262200  1
  C  C18  1  0.48292800  0.96585700  0.34240000  1
  C  C19  1  0.48292800  0.51707200  0.34240000  1
  C  C20  1  0.32778800  0.16389400  0.09262200  1
  C  C21  1  0.67221200  0.83610600  0.59262200  1
  C  C22  1  0.51707200  0.48292800  0.84240000  1
  C  C23  1  0.51707200  0.03414300  0.84240000  1
  C  C24  1  0.66666700  0.33333300  0.61818300  1
  C  C25  1  0.83610600  0.67221200  0.09262200  1
  C  C26  1  0.96585700  0.48292800  0.84240000  1
  C  C27  1  0.83610600  0.16389400  0.09262200  1
