# generated using pymatgen
data_Cu7Ni5C6
_symmetry_space_group_name_H-M   'P 1'
_cell_length_a   4.79378400
_cell_length_b   5.72794328
_cell_length_c   7.83666115
_cell_angle_alpha   85.48276363
_cell_angle_beta   88.97838894
_cell_angle_gamma   87.71178912
_symmetry_Int_Tables_number   1
_chemical_formula_structural   Cu7Ni5C6
_chemical_formula_sum   'Cu7 Ni5 C6'
_cell_volume   214.32037139
_cell_formula_units_Z   1
loop_
 _symmetry_equiv_pos_site_id
 _symmetry_equiv_pos_as_xyz
  1  'x, y, z'
loop_
 _atom_site_type_symbol
 _atom_site_label
 _atom_site_symmetry_multiplicity
 _atom_site_fract_x
 _atom_site_fract_y
 _atom_site_fract_z
 _atom_site_occupancy
  C  C0  1  0.49639800  0.16874400  0.33596300  1
  C  C1  1  0.47176200  0.48743100  0.99992300  1
  C  C2  1  0.54678400  0.83642300  0.65938600  1
  C  C3  1  0.01043200  0.66050400  0.32735500  1
  C  C4  1  0.93006000  0.33351700  0.67165800  1
  C  C5  1  0.03981200  0.01723600  0.00812200  1
  Ni  Ni6  1  0.80741800  0.62871000  0.56414500  1
  Ni  Ni7  1  0.80132200  0.29049400  0.90416900  1
  Ni  Ni8  1  0.69273100  0.12641500  0.55537300  1
  Ni  Ni9  1  0.30274600  0.20905800  0.11689700  1
  Ni  Ni10  1  0.20039600  0.71295200  0.08750700  1
  Cu  Cu11  1  0.79368100  0.97433200  0.22448200  1
  Cu  Cu12  1  0.69247100  0.79419100  0.89637800  1
  Cu  Cu13  1  0.68623900  0.46042400  0.23387000  1
  Cu  Cu14  1  0.31041000  0.87293200  0.43736600  1
  Cu  Cu15  1  0.31282800  0.54138200  0.76133700  1
  Cu  Cu16  1  0.20306900  0.03350900  0.76340300  1
  Cu  Cu17  1  0.20144100  0.35174500  0.45266800  1
