# generated using pymatgen
data_Cu13(NiC6)2
_symmetry_space_group_name_H-M   'P 1'
_cell_length_a   10.89719600
_cell_length_b   9.28217800
_cell_length_c   10.53276058
_cell_angle_alpha   80.48665751
_cell_angle_beta   90.00000000
_cell_angle_gamma   90.00000000
_symmetry_Int_Tables_number   1
_chemical_formula_structural   Cu13(NiC6)2
_chemical_formula_sum   'Cu52 Ni8 C48'
_cell_volume   1050.73360914
_cell_formula_units_Z   4
loop_
 _symmetry_equiv_pos_site_id
 _symmetry_equiv_pos_as_xyz
  1  'x, y, z'
loop_
 _atom_site_type_symbol
 _atom_site_label
 _atom_site_symmetry_multiplicity
 _atom_site_fract_x
 _atom_site_fract_y
 _atom_site_fract_z
 _atom_site_occupancy
  C  C0  1  0.63732100  0.40648500  0.20880500  1
  C  C1  1  0.86267900  0.90648500  0.20880500  1
  C  C2  1  0.13732100  0.09351500  0.79119500  1
  C  C3  1  0.36267900  0.59351500  0.79119500  1
  C  C4  1  0.67723800  0.10454900  0.08849200  1
  C  C5  1  0.86975200  0.43571500  0.09507100  1
  C  C6  1  0.82276200  0.60454900  0.08849200  1
  C  C7  1  0.30957100  0.40720800  0.14449200  1
  C  C8  1  0.20997300  0.03753900  0.24899900  1
  C  C9  1  0.63024800  0.93571500  0.09507100  1
  C  C10  1  0.19042900  0.90720800  0.14449200  1
  C  C11  1  0.17727100  0.41847400  0.22286800  1
  C  C12  1  0.29002700  0.53753900  0.24899900  1
  C  C13  1  0.48028700  0.17768500  0.32363400  1
  C  C14  1  0.08169800  0.15662200  0.34305700  1
  C  C15  1  0.97654300  0.42512600  0.34639600  1
  C  C16  1  0.32272900  0.91847400  0.22286800  1
  C  C17  1  0.21396800  0.17546500  0.39310600  1
  C  C18  1  0.01971300  0.67768500  0.32363400  1
  C  C19  1  0.47251200  0.30339900  0.40947300  1
  C  C20  1  0.41830200  0.65662200  0.34305700  1
  C  C21  1  0.09650200  0.45255400  0.41831300  1
  C  C22  1  0.52345700  0.92512600  0.34639600  1
  C  C23  1  0.28603200  0.67546500  0.39310600  1
  C  C24  1  0.02748800  0.80339900  0.40947300  1
  C  C25  1  0.40349800  0.95255400  0.41831300  1
  C  C26  1  0.59650200  0.04744600  0.58168700  1
  C  C27  1  0.97251200  0.19660100  0.59052700  1
  C  C28  1  0.71396800  0.32453500  0.60689400  1
  C  C29  1  0.47654300  0.07487400  0.65360400  1
  C  C30  1  0.90349800  0.54744600  0.58168700  1
  C  C31  1  0.58169800  0.34337800  0.65694300  1
  C  C32  1  0.52748800  0.69660100  0.59052700  1
  C  C33  1  0.98028700  0.32231500  0.67636600  1
  C  C34  1  0.78603200  0.82453500  0.60689400  1
  C  C35  1  0.67727100  0.08152600  0.77713200  1
  C  C36  1  0.02345700  0.57487400  0.65360400  1
  C  C37  1  0.91830200  0.84337800  0.65694300  1
  C  C38  1  0.51971300  0.82231500  0.67636600  1
  C  C39  1  0.70997300  0.46246100  0.75100100  1
  C  C40  1  0.82272900  0.58152600  0.77713200  1
  C  C41  1  0.80957100  0.09279200  0.85550800  1
  C  C42  1  0.36975200  0.06428500  0.90492900  1
  C  C43  1  0.79002700  0.96246100  0.75100100  1
  C  C44  1  0.69042900  0.59279200  0.85550800  1
  C  C45  1  0.17723800  0.39545100  0.91150800  1
  C  C46  1  0.13024800  0.56428500  0.90492900  1
  C  C47  1  0.32276200  0.89545100  0.91150800  1
  Ni  Ni48  1  0.98079300  0.20823600  0.02564200  1
  Ni  Ni49  1  0.51920700  0.70823600  0.02564200  1
  Ni  Ni50  1  0.80902600  0.14687500  0.39839400  1
  Ni  Ni51  1  0.69097400  0.64687500  0.39839400  1
  Ni  Ni52  1  0.30902600  0.35312500  0.60160600  1
  Ni  Ni53  1  0.19097400  0.85312500  0.60160600  1
  Ni  Ni54  1  0.48079300  0.29176400  0.97435800  1
  Ni  Ni55  1  0.01920700  0.79176400  0.97435800  1
  Cu  Cu56  1  0.37117500  0.30087800  0.05275800  1
  Cu  Cu57  1  0.59682500  0.28223200  0.05685200  1
  Cu  Cu58  1  0.99453300  0.07151300  0.12624400  1
  Cu  Cu59  1  0.98365000  0.33712000  0.08956600  1
  Cu  Cu60  1  0.12882500  0.80087800  0.05275800  1
  Cu  Cu61  1  0.79803000  0.50090700  0.10885300  1
  Cu  Cu62  1  0.90317500  0.78223200  0.05685200  1
  Cu  Cu63  1  0.50546700  0.57151300  0.12624400  1
  Cu  Cu64  1  0.51635000  0.83712000  0.08956600  1
  Cu  Cu65  1  0.25154600  0.47007200  0.18719400  1
  Cu  Cu66  1  0.70197000  0.00090700  0.10885300  1
  Cu  Cu67  1  0.76232600  0.22135400  0.27031100  1
  Cu  Cu68  1  0.45661400  0.99563400  0.34562300  1
  Cu  Cu69  1  0.16883800  0.15093900  0.31910100  1
  Cu  Cu70  1  0.24845400  0.97007200  0.18719400  1
  Cu  Cu71  1  0.48351200  0.28706500  0.31927900  1
  Cu  Cu72  1  0.73767400  0.72135400  0.27031100  1
  Cu  Cu73  1  0.04338600  0.49563400  0.34562300  1
  Cu  Cu74  1  0.33116200  0.65093900  0.31910100  1
  Cu  Cu75  1  0.93093000  0.20957100  0.42450700  1
  Cu  Cu76  1  0.01648800  0.78706500  0.31927900  1
  Cu  Cu77  1  0.67405000  0.48749200  0.38689800  1
  Cu  Cu78  1  0.72214700  0.15724500  0.50268500  1
  Cu  Cu79  1  0.56907000  0.70957100  0.42450700  1
  Cu  Cu80  1  0.82595000  0.98749200  0.38689800  1
  Cu  Cu81  1  0.22214700  0.34275500  0.49731500  1
  Cu  Cu82  1  0.77785300  0.65724500  0.50268500  1
  Cu  Cu83  1  0.17405000  0.01250800  0.61310200  1
  Cu  Cu84  1  0.43093000  0.29042900  0.57549300  1
  Cu  Cu85  1  0.27785300  0.84275500  0.49731500  1
  Cu  Cu86  1  0.32595000  0.51250800  0.61310200  1
  Cu  Cu87  1  0.98351200  0.21293500  0.68072100  1
  Cu  Cu88  1  0.06907000  0.79042900  0.57549300  1
  Cu  Cu89  1  0.66883800  0.34906100  0.68089900  1
  Cu  Cu90  1  0.95661400  0.50436600  0.65437700  1
  Cu  Cu91  1  0.26232600  0.27864600  0.72968900  1
  Cu  Cu92  1  0.51648800  0.71293500  0.68072100  1
  Cu  Cu93  1  0.75154600  0.02992800  0.81280600  1
  Cu  Cu94  1  0.83116200  0.84906100  0.68089900  1
  Cu  Cu95  1  0.54338600  0.00436600  0.65437700  1
  Cu  Cu96  1  0.23767400  0.77864600  0.72968900  1
  Cu  Cu97  1  0.29803000  0.99909300  0.89114700  1
  Cu  Cu98  1  0.74845400  0.52992800  0.81280600  1
  Cu  Cu99  1  0.48365000  0.16288000  0.91043400  1
  Cu  Cu100  1  0.49453300  0.42848700  0.87375600  1
  Cu  Cu101  1  0.09682500  0.21776800  0.94314800  1
  Cu  Cu102  1  0.20197000  0.49909300  0.89114700  1
  Cu  Cu103  1  0.87117500  0.19912200  0.94724200  1
  Cu  Cu104  1  0.01635000  0.66288000  0.91043400  1
  Cu  Cu105  1  0.00546700  0.92848700  0.87375600  1
  Cu  Cu106  1  0.40317500  0.71776800  0.94314800  1
  Cu  Cu107  1  0.62882500  0.69912200  0.94724200  1
