# generated using pymatgen
data_Cu3(NiC4)2
_symmetry_space_group_name_H-M   'P 1'
_cell_length_a   11.21165400
_cell_length_b   6.53480100
_cell_length_c   13.71252104
_cell_angle_alpha   64.64068827
_cell_angle_beta   90.00000000
_cell_angle_gamma   90.00000000
_symmetry_Int_Tables_number   1
_chemical_formula_structural   Cu3(NiC4)2
_chemical_formula_sum   'Cu24 Ni16 C64'
_cell_volume   907.85115234
_cell_formula_units_Z   8
loop_
 _symmetry_equiv_pos_site_id
 _symmetry_equiv_pos_as_xyz
  1  'x, y, z'
loop_
 _atom_site_type_symbol
 _atom_site_label
 _atom_site_symmetry_multiplicity
 _atom_site_fract_x
 _atom_site_fract_y
 _atom_site_fract_z
 _atom_site_occupancy
  C  C0  1  0.64594500  0.79745500  0.95762500  1
  C  C1  1  0.85405500  0.79745500  0.45762500  1
  C  C2  1  0.35405500  0.20254500  0.04237500  1
  C  C3  1  0.14594500  0.20254500  0.54237500  1
  C  C4  1  0.54005700  0.83111200  0.15466300  1
  C  C5  1  0.95994300  0.83111200  0.65466300  1
  C  C6  1  0.45994300  0.16888800  0.84533700  1
  C  C7  1  0.04005700  0.16888800  0.34533700  1
  C  C8  1  0.48722400  0.61046100  0.06452100  1
  C  C9  1  0.01277600  0.61046100  0.56452100  1
  C  C10  1  0.51277600  0.38953900  0.93547900  1
  C  C11  1  0.98722400  0.38953900  0.43547900  1
  C  C12  1  0.66060400  0.14621100  0.81084600  1
  C  C13  1  0.83939600  0.14621100  0.31084600  1
  C  C14  1  0.33939600  0.85378900  0.18915400  1
  C  C15  1  0.16060400  0.85378900  0.68915400  1
  C  C16  1  0.94719600  0.90494200  0.15674300  1
  C  C17  1  0.55280400  0.90494200  0.65674300  1
  C  C18  1  0.05280400  0.09505800  0.84325700  1
  C  C19  1  0.44719600  0.09505800  0.34325700  1
  C  C20  1  0.94526000  0.61440700  0.19825600  1
  C  C21  1  0.55474000  0.61440700  0.69825600  1
  C  C22  1  0.05474000  0.38559300  0.80174400  1
  C  C23  1  0.44526000  0.38559300  0.30174400  1
  C  C24  1  0.82393600  0.77981400  0.13670600  1
  C  C25  1  0.67606400  0.77981400  0.63670600  1
  C  C26  1  0.17606400  0.22018600  0.86329400  1
  C  C27  1  0.32393600  0.22018600  0.36329400  1
  C  C28  1  0.86658400  0.73100800  0.26596600  1
  C  C29  1  0.63341600  0.73100800  0.76596600  1
  C  C30  1  0.13341600  0.26899200  0.73403400  1
  C  C31  1  0.36658400  0.26899200  0.23403400  1
  C  C32  1  0.74502500  0.41500500  0.94497800  1
  C  C33  1  0.75497500  0.41500500  0.44497800  1
  C  C34  1  0.25497500  0.58499500  0.05502200  1
  C  C35  1  0.24502500  0.58499500  0.55502200  1
  C  C36  1  0.88319400  0.29097700  0.99508500  1
  C  C37  1  0.61680600  0.29097700  0.49508500  1
  C  C38  1  0.11680600  0.70902300  0.00491500  1
  C  C39  1  0.38319400  0.70902300  0.50491500  1
  C  C40  1  0.77785400  0.14601400  0.96214900  1
  C  C41  1  0.72214600  0.14601400  0.46214900  1
  C  C42  1  0.22214600  0.85398600  0.03785100  1
  C  C43  1  0.27785400  0.85398600  0.53785100  1
  C  C44  1  0.84691300  0.37086700  0.86518300  1
  C  C45  1  0.65308700  0.37086700  0.36518300  1
  C  C46  1  0.15308700  0.62913300  0.13481700  1
  C  C47  1  0.34691300  0.62913300  0.63481700  1
  C  C48  1  0.82807500  0.16774700  0.69662900  1
  C  C49  1  0.67192500  0.16774700  0.19662900  1
  C  C50  1  0.17192500  0.83225300  0.30337100  1
  C  C51  1  0.32807500  0.83225300  0.80337100  1
  C  C52  1  0.84397400  0.40901000  0.69369100  1
  C  C53  1  0.65602600  0.40901000  0.19369100  1
  C  C54  1  0.15602600  0.59099000  0.30630900  1
  C  C55  1  0.34397400  0.59099000  0.80630900  1
  C  C56  1  0.51390300  0.73171000  0.36729200  1
  C  C57  1  0.98609700  0.73171000  0.86729200  1
  C  C58  1  0.48609700  0.26829000  0.63270800  1
  C  C59  1  0.01390300  0.26829000  0.13270800  1
  C  C60  1  0.58984600  0.80927600  0.44376100  1
  C  C61  1  0.91015400  0.80927600  0.94376100  1
  C  C62  1  0.41015400  0.19072400  0.55623900  1
  C  C63  1  0.08984600  0.19072400  0.05623900  1
  Ni  Ni64  1  0.55530900  0.71657900  0.06478200  1
  Ni  Ni65  1  0.94469100  0.71657900  0.56478200  1
  Ni  Ni66  1  0.44469100  0.28342100  0.93521800  1
  Ni  Ni67  1  0.05530900  0.28342100  0.43521800  1
  Ni  Ni68  1  0.59638100  0.05040000  0.86522300  1
  Ni  Ni69  1  0.90361900  0.05040000  0.36522300  1
  Ni  Ni70  1  0.40361900  0.94960000  0.13477700  1
  Ni  Ni71  1  0.09638100  0.94960000  0.63477700  1
  Ni  Ni72  1  0.89504600  0.75758300  0.18884100  1
  Ni  Ni73  1  0.60495400  0.75758300  0.68884100  1
  Ni  Ni74  1  0.10495400  0.24241700  0.81115900  1
  Ni  Ni75  1  0.39504600  0.24241700  0.31115900  1
  Ni  Ni76  1  0.81257100  0.30640200  0.94235700  1
  Ni  Ni77  1  0.68742900  0.30640200  0.44235700  1
  Ni  Ni78  1  0.18742900  0.69359800  0.05764300  1
  Ni  Ni79  1  0.31257100  0.69359800  0.55764300  1
  Cu  Cu80  1  0.63358800  0.61974800  0.91352700  1
  Cu  Cu81  1  0.86641200  0.61974800  0.41352700  1
  Cu  Cu82  1  0.36641200  0.38025200  0.08647300  1
  Cu  Cu83  1  0.13358800  0.38025200  0.58647300  1
  Cu  Cu84  1  0.77155600  0.83559000  0.98813000  1
  Cu  Cu85  1  0.72844400  0.83559000  0.48813000  1
  Cu  Cu86  1  0.22844400  0.16441000  0.01187000  1
  Cu  Cu87  1  0.27155600  0.16441000  0.51187000  1
  Cu  Cu88  1  0.53251700  0.63117600  0.26675300  1
  Cu  Cu89  1  0.96748300  0.63117600  0.76675300  1
  Cu  Cu90  1  0.46748300  0.36882400  0.73324700  1
  Cu  Cu91  1  0.03251700  0.36882400  0.23324700  1
  Cu  Cu92  1  0.63832400  0.00098900  0.13279400  1
  Cu  Cu93  1  0.86167600  0.00098900  0.63279400  1
  Cu  Cu94  1  0.36167600  0.99901100  0.86720600  1
  Cu  Cu95  1  0.13832400  0.99901100  0.36720600  1
  Cu  Cu96  1  0.80309500  0.26445100  0.73316300  1
  Cu  Cu97  1  0.69690500  0.26445100  0.23316300  1
  Cu  Cu98  1  0.19690500  0.73554900  0.26683700  1
  Cu  Cu99  1  0.30309500  0.73554900  0.76683700  1
  Cu  Cu100  1  0.50673300  0.80361400  0.41796000  1
  Cu  Cu101  1  0.99326700  0.80361400  0.91796000  1
  Cu  Cu102  1  0.49326700  0.19638600  0.58204000  1
  Cu  Cu103  1  0.00673300  0.19638600  0.08204000  1
