# generated using pymatgen
data_Cu3NiC10
_symmetry_space_group_name_H-M   'P 1'
_cell_length_a   8.11997685
_cell_length_b   8.11997685
_cell_length_c   8.11786782
_cell_angle_alpha   89.89987536
_cell_angle_beta   89.89987536
_cell_angle_gamma   90.07395366
_symmetry_Int_Tables_number   1
_chemical_formula_structural   Cu3NiC10
_chemical_formula_sum   'Cu12 Ni4 C40'
_cell_volume   535.24161007
_cell_formula_units_Z   4
loop_
 _symmetry_equiv_pos_site_id
 _symmetry_equiv_pos_as_xyz
  1  'x, y, z'
loop_
 _atom_site_type_symbol
 _atom_site_label
 _atom_site_symmetry_multiplicity
 _atom_site_fract_x
 _atom_site_fract_y
 _atom_site_fract_z
 _atom_site_occupancy
  C  C0  1  0.99742100  0.74885500  0.87177300  1
  C  C1  1  0.25114500  0.00257900  0.12822700  1
  C  C2  1  0.75261900  0.49495200  0.12200700  1
  C  C3  1  0.49667900  0.75489500  0.37724700  1
  C  C4  1  0.00300800  0.25395400  0.37099800  1
  C  C5  1  0.74604600  0.99699200  0.62900200  1
  C  C6  1  0.24510500  0.50332100  0.62275300  1
  C  C7  1  0.50504800  0.24738100  0.87799300  1
  Ni  Ni8  1  0.37478600  0.62521400  0.00000000  1
  Ni  Ni9  1  0.87346700  0.87900600  0.24600100  1
  Ni  Ni10  1  0.62555200  0.37444800  0.50000000  1
  Ni  Ni11  1  0.12099400  0.12653300  0.75399900  1
  Cu  Cu12  1  0.62432200  0.87636300  0.00043900  1
  Cu  Cu13  1  0.87436300  0.12563700  0.00000000  1
  Cu  Cu14  1  0.12363700  0.37567800  0.99956100  1
  Cu  Cu15  1  0.62483100  0.12540100  0.24897500  1
  Cu  Cu16  1  0.37556900  0.37485600  0.24970000  1
  Cu  Cu17  1  0.12477700  0.62470500  0.24954100  1
  Cu  Cu18  1  0.37412900  0.12418900  0.50012600  1
  Cu  Cu19  1  0.12445300  0.87554700  0.50000000  1
  Cu  Cu20  1  0.87581100  0.62587100  0.49987400  1
  Cu  Cu21  1  0.37529500  0.87522300  0.75045900  1
  Cu  Cu22  1  0.62514400  0.62443100  0.75030000  1
  Cu  Cu23  1  0.87459900  0.37516900  0.75102500  1
  C  C24  1  0.38774700  0.86213300  0.98848900  1
  C  C25  1  0.61423500  0.63522200  0.98341700  1
  C  C26  1  0.88973000  0.36034500  0.98513200  1
  C  C27  1  0.86232300  0.88612700  0.01295500  1
  C  C28  1  0.11387300  0.13767700  0.98704500  1
  C  C29  1  0.63965500  0.11027000  0.01486800  1
  C  C30  1  0.36477800  0.38576500  0.01658300  1
  C  C31  1  0.13786700  0.61225300  0.01151100  1
  C  C32  1  0.63773200  0.88821900  0.23824300  1
  C  C33  1  0.86259700  0.11295700  0.23854000  1
  C  C34  1  0.14019600  0.39447100  0.23522900  1
  C  C35  1  0.61250400  0.36243300  0.26346700  1
  C  C36  1  0.35844600  0.61381700  0.23868300  1
  C  C37  1  0.38875600  0.14044700  0.26686500  1
  C  C38  1  0.11193900  0.85805500  0.26362900  1
  C  C39  1  0.89055400  0.63485200  0.26630900  1
  C  C40  1  0.60965700  0.13706600  0.49067100  1
  C  C41  1  0.38758200  0.36110100  0.48680300  1
  C  C42  1  0.10936800  0.63980800  0.48399100  1
  C  C43  1  0.14225000  0.11390600  0.51102200  1
  C  C44  1  0.88609400  0.85775000  0.48897800  1
  C  C45  1  0.36019200  0.89063200  0.51600900  1
  C  C46  1  0.63889900  0.61241800  0.51319700  1
  C  C47  1  0.86293400  0.39034300  0.50932900  1
  C  C48  1  0.36514800  0.10944600  0.73369100  1
  C  C49  1  0.14194500  0.88806100  0.73637100  1
  C  C50  1  0.85955300  0.61124400  0.73313500  1
  C  C51  1  0.38618300  0.64155400  0.76131700  1
  C  C52  1  0.63756700  0.38749600  0.73653300  1
  C  C53  1  0.60552900  0.85980400  0.76477100  1
  C  C54  1  0.88704300  0.13740300  0.76146000  1
  C  C55  1  0.11178100  0.36226800  0.76175700  1
