# generated using pymatgen
data_CuNiC3
_symmetry_space_group_name_H-M   'P 1'
_cell_length_a   5.61601800
_cell_length_b   5.88403800
_cell_length_c   8.26636500
_cell_angle_alpha   90.00000000
_cell_angle_beta   90.00000000
_cell_angle_gamma   90.00000000
_symmetry_Int_Tables_number   1
_chemical_formula_structural   CuNiC3
_chemical_formula_sum   'Cu4 Ni4 C12'
_cell_volume   273.16090158
_cell_formula_units_Z   4
loop_
 _symmetry_equiv_pos_site_id
 _symmetry_equiv_pos_as_xyz
  1  'x, y, z'
loop_
 _atom_site_type_symbol
 _atom_site_label
 _atom_site_symmetry_multiplicity
 _atom_site_fract_x
 _atom_site_fract_y
 _atom_site_fract_z
 _atom_site_occupancy
  Ni  Ni0  1  0.01709600  0.94510000  0.75000000  1
  Ni  Ni1  1  0.48290400  0.44510000  0.75000000  1
  Ni  Ni2  1  0.51709600  0.55490000  0.25000000  1
  Ni  Ni3  1  0.98290400  0.05490000  0.25000000  1
  Cu  Cu4  1  0.00000000  0.50000000  0.00000000  1
  Cu  Cu5  1  0.00000000  0.50000000  0.50000000  1
  Cu  Cu6  1  0.50000000  0.00000000  0.00000000  1
  Cu  Cu7  1  0.50000000  0.00000000  0.50000000  1
  C  C8  1  0.14033900  0.43150400  0.25000000  1
  C  C9  1  0.18486800  0.18780900  0.57362800  1
  C  C10  1  0.18486800  0.18780900  0.92637200  1
  C  C11  1  0.31513200  0.68780900  0.92637200  1
  C  C12  1  0.31513200  0.68780900  0.57362800  1
  C  C13  1  0.35966100  0.93150400  0.25000000  1
  C  C14  1  0.64033900  0.06849600  0.75000000  1
  C  C15  1  0.68486800  0.31219100  0.07362800  1
  C  C16  1  0.68486800  0.31219100  0.42637200  1
  C  C17  1  0.81513200  0.81219100  0.07362800  1
  C  C18  1  0.81513200  0.81219100  0.42637200  1
  C  C19  1  0.85966100  0.56849600  0.75000000  1
