# generated using pymatgen
data_Cu4Ni2C33
_symmetry_space_group_name_H-M   'P 1'
_cell_length_a   7.71831600
_cell_length_b   7.71831600
_cell_length_c   11.19779200
_cell_angle_alpha   90.00000000
_cell_angle_beta   90.00000000
_cell_angle_gamma   90.00000000
_symmetry_Int_Tables_number   1
_chemical_formula_structural   Cu4Ni2C33
_chemical_formula_sum   'Cu8 Ni4 C66'
_cell_volume   667.07936515
_cell_formula_units_Z   2
loop_
 _symmetry_equiv_pos_site_id
 _symmetry_equiv_pos_as_xyz
  1  'x, y, z'
loop_
 _atom_site_type_symbol
 _atom_site_label
 _atom_site_symmetry_multiplicity
 _atom_site_fract_x
 _atom_site_fract_y
 _atom_site_fract_z
 _atom_site_occupancy
  C  C0  1  0.61618500  0.84787100  0.82777300  1
  C  C1  1  0.38381500  0.15212900  0.82777300  1
  C  C2  1  0.11618500  0.34787100  0.67222700  1
  C  C3  1  0.88381500  0.65212900  0.67222700  1
  C  C4  1  0.38381500  0.84787100  0.82777300  1
  C  C5  1  0.61618500  0.15212900  0.82777300  1
  C  C6  1  0.88381500  0.34787100  0.67222700  1
  C  C7  1  0.11618500  0.65212900  0.67222700  1
  C  C8  1  0.15212900  0.61618500  0.17222700  1
  C  C9  1  0.84787100  0.38381500  0.17222700  1
  C  C10  1  0.65212900  0.11618500  0.32777300  1
  C  C11  1  0.34787100  0.88381500  0.32777300  1
  C  C12  1  0.84787100  0.61618500  0.17222700  1
  C  C13  1  0.15212900  0.38381500  0.17222700  1
  C  C14  1  0.34787100  0.11618500  0.32777300  1
  C  C15  1  0.65212900  0.88381500  0.32777300  1
  C  C16  1  0.50000000  0.72654800  0.71378100  1
  C  C17  1  0.50000000  0.27345200  0.71378100  1
  C  C18  1  0.00000000  0.22654800  0.78621900  1
  C  C19  1  0.00000000  0.77345200  0.78621900  1
  C  C20  1  0.27345200  0.50000000  0.28621900  1
  C  C21  1  0.72654800  0.50000000  0.28621900  1
  C  C22  1  0.77345200  0.00000000  0.21378100  1
  C  C23  1  0.22654800  0.00000000  0.21378100  1
  C  C24  1  0.34114100  0.11689500  0.56096500  1
  C  C25  1  0.65885900  0.88310500  0.56096500  1
  C  C26  1  0.84114100  0.61689500  0.93903500  1
  C  C27  1  0.15885900  0.38310500  0.93903500  1
  C  C28  1  0.65885900  0.11689500  0.56096500  1
  C  C29  1  0.34114100  0.88310500  0.56096500  1
  C  C30  1  0.15885900  0.61689500  0.93903500  1
  C  C31  1  0.84114100  0.38310500  0.93903500  1
  C  C32  1  0.88310500  0.34114100  0.43903500  1
  C  C33  1  0.11689500  0.65885900  0.43903500  1
  C  C34  1  0.38310500  0.84114100  0.06096500  1
  C  C35  1  0.61689500  0.15885900  0.06096500  1
  C  C36  1  0.11689500  0.34114100  0.43903500  1
  C  C37  1  0.88310500  0.65885900  0.43903500  1
  C  C38  1  0.61689500  0.84114100  0.06096500  1
  C  C39  1  0.38310500  0.15885900  0.06096500  1
  C  C40  1  0.22838800  0.00000000  0.67728800  1
  C  C41  1  0.77161200  0.00000000  0.67728800  1
  C  C42  1  0.72838800  0.50000000  0.82271200  1
  C  C43  1  0.27161200  0.50000000  0.82271200  1
  C  C44  1  0.00000000  0.22838800  0.32271200  1
  C  C45  1  0.00000000  0.77161200  0.32271200  1
  C  C46  1  0.50000000  0.72838800  0.17728800  1
  C  C47  1  0.50000000  0.27161200  0.17728800  1
  C  C48  1  0.50000000  0.84164900  0.77154900  1
  C  C49  1  0.50000000  0.15835100  0.77154900  1
  C  C50  1  0.00000000  0.34164900  0.72845100  1
  C  C51  1  0.00000000  0.65835100  0.72845100  1
  C  C52  1  0.15835100  0.50000000  0.22845100  1
  C  C53  1  0.84164900  0.50000000  0.22845100  1
  C  C54  1  0.65835100  0.00000000  0.27154900  1
  C  C55  1  0.34164900  0.00000000  0.27154900  1
  C  C56  1  0.33968400  0.00000000  0.61686400  1
  C  C57  1  0.66031600  0.00000000  0.61686400  1
  C  C58  1  0.83968400  0.50000000  0.88313600  1
  C  C59  1  0.16031600  0.50000000  0.88313600  1
  C  C60  1  0.00000000  0.33968400  0.38313600  1
  C  C61  1  0.00000000  0.66031600  0.38313600  1
  C  C62  1  0.50000000  0.83968400  0.11686400  1
  C  C63  1  0.50000000  0.16031600  0.11686400  1
  C  C64  1  0.50000000  0.50000000  0.50000000  1
  C  C65  1  0.00000000  0.00000000  0.00000000  1
  Ni  Ni66  1  0.50000000  0.00000000  0.69329600  1
  Ni  Ni67  1  0.00000000  0.50000000  0.80670400  1
  Ni  Ni68  1  0.00000000  0.50000000  0.30670400  1
  Ni  Ni69  1  0.50000000  0.00000000  0.19329600  1
  Cu  Cu70  1  0.34092900  0.50000000  0.57720700  1
  Cu  Cu71  1  0.65907200  0.50000000  0.57720700  1
  Cu  Cu72  1  0.84092800  0.00000000  0.92279300  1
  Cu  Cu73  1  0.15907100  0.00000000  0.92279300  1
  Cu  Cu74  1  0.50000000  0.34092900  0.42279300  1
  Cu  Cu75  1  0.50000000  0.65907200  0.42279300  1
  Cu  Cu76  1  0.00000000  0.84092800  0.07720700  1
  Cu  Cu77  1  0.00000000  0.15907100  0.07720700  1
