# generated using pymatgen
data_Cu14(Ni4C5)3
_symmetry_space_group_name_H-M   'P 1'
_cell_length_a   16.72524900
_cell_length_b   16.72524900
_cell_length_c   16.37425700
_cell_angle_alpha   90.00000000
_cell_angle_beta   90.00000000
_cell_angle_gamma   90.00000000
_symmetry_Int_Tables_number   1
_chemical_formula_structural   Cu14(Ni4C5)3
_chemical_formula_sum   'Cu56 Ni48 C60'
_cell_volume   4580.43565626
_cell_formula_units_Z   4
loop_
 _symmetry_equiv_pos_site_id
 _symmetry_equiv_pos_as_xyz
  1  'x, y, z'
loop_
 _atom_site_type_symbol
 _atom_site_label
 _atom_site_symmetry_multiplicity
 _atom_site_fract_x
 _atom_site_fract_y
 _atom_site_fract_z
 _atom_site_occupancy
  C  C0  1  0.51964400  0.62043900  0.10045100  1
  C  C1  1  0.01964400  0.87956100  0.39954900  1
  C  C2  1  0.48035600  0.37956100  0.10045100  1
  C  C3  1  0.98035600  0.12043900  0.39954900  1
  C  C4  1  0.62043900  0.48035600  0.89954900  1
  C  C5  1  0.87956100  0.98035600  0.60045100  1
  C  C6  1  0.37956100  0.51964400  0.89954900  1
  C  C7  1  0.12043900  0.01964400  0.60045100  1
  C  C8  1  0.39506600  0.78099100  0.91642400  1
  C  C9  1  0.89506600  0.71900900  0.58357600  1
  C  C10  1  0.60493400  0.21900900  0.91642400  1
  C  C11  1  0.10493400  0.28099100  0.58357600  1
  C  C12  1  0.78099100  0.60493400  0.08357600  1
  C  C13  1  0.71900900  0.10493400  0.41642400  1
  C  C14  1  0.21900900  0.39506600  0.08357600  1
  C  C15  1  0.28099100  0.89506600  0.41642400  1
  C  C16  1  0.50000000  0.50000000  0.59088200  1
  C  C17  1  0.00000000  0.00000000  0.90911800  1
  C  C18  1  0.50000000  0.50000000  0.40911800  1
  C  C19  1  0.00000000  0.00000000  0.09088200  1
  C  C20  1  0.19648700  0.55187900  0.65133200  1
  C  C21  1  0.69648700  0.94812100  0.84866800  1
  C  C22  1  0.80351300  0.44812100  0.65133200  1
  C  C23  1  0.30351300  0.05187900  0.84866800  1
  C  C24  1  0.55187900  0.80351300  0.34866800  1
  C  C25  1  0.94812100  0.30351300  0.15133200  1
  C  C26  1  0.44812100  0.19648700  0.34866800  1
  C  C27  1  0.05187900  0.69648700  0.15133200  1
  C  C28  1  0.19264500  0.72585000  0.62786100  1
  C  C29  1  0.69264500  0.77415000  0.87213900  1
  C  C30  1  0.80735500  0.27415000  0.62786100  1
  C  C31  1  0.30735500  0.22585000  0.87213900  1
  C  C32  1  0.72585000  0.80735500  0.37213900  1
  C  C33  1  0.77415000  0.30735500  0.12786100  1
  C  C34  1  0.27415000  0.19264500  0.37213900  1
  C  C35  1  0.22585000  0.69264500  0.12786100  1
  C  C36  1  0.11411900  0.80293000  0.76449100  1
  C  C37  1  0.61411900  0.69707000  0.73550900  1
  C  C38  1  0.88588100  0.19707000  0.76449100  1
  C  C39  1  0.38588100  0.30293000  0.73550900  1
  C  C40  1  0.80293000  0.88588100  0.23550900  1
  C  C41  1  0.69707000  0.38588100  0.26449100  1
  C  C42  1  0.19707000  0.11411900  0.23550900  1
  C  C43  1  0.30293000  0.61411900  0.26449100  1
  C  C44  1  0.04563700  0.69314300  0.89184300  1
  C  C45  1  0.54563700  0.80685700  0.60815700  1
  C  C46  1  0.95436300  0.30685700  0.89184300  1
  C  C47  1  0.45436300  0.19314300  0.60815700  1
  C  C48  1  0.69314300  0.95436300  0.10815700  1
  C  C49  1  0.80685700  0.45436300  0.39184300  1
  C  C50  1  0.30685700  0.04563700  0.10815700  1
  C  C51  1  0.19314300  0.54563700  0.39184300  1
  C  C52  1  0.10507700  0.53572200  0.81279200  1
  C  C53  1  0.60507700  0.96427800  0.68720800  1
  C  C54  1  0.89492300  0.46427800  0.81279200  1
  C  C55  1  0.39492300  0.03572200  0.68720800  1
  C  C56  1  0.53572200  0.89492300  0.18720800  1
  C  C57  1  0.96427800  0.39492300  0.31279200  1
  C  C58  1  0.46427800  0.10507700  0.18720800  1
  C  C59  1  0.03572200  0.60507700  0.31279200  1
  Ni  Ni60  1  0.21108400  0.63526000  0.60810100  1
  Ni  Ni61  1  0.71108400  0.86474000  0.89189900  1
  Ni  Ni62  1  0.78891600  0.36474000  0.60810100  1
  Ni  Ni63  1  0.28891600  0.13526000  0.89189900  1
  Ni  Ni64  1  0.63526000  0.78891600  0.39189900  1
  Ni  Ni65  1  0.86474000  0.28891600  0.10810100  1
  Ni  Ni66  1  0.36474000  0.21108400  0.39189900  1
  Ni  Ni67  1  0.13526000  0.71108400  0.10810100  1
  Ni  Ni68  1  0.14790200  0.73007200  0.71334100  1
  Ni  Ni69  1  0.64790200  0.76992800  0.78665900  1
  Ni  Ni70  1  0.85209800  0.26992800  0.71334100  1
  Ni  Ni71  1  0.35209800  0.23007200  0.78665900  1
  Ni  Ni72  1  0.73007200  0.85209800  0.28665900  1
  Ni  Ni73  1  0.76992800  0.35209800  0.21334100  1
  Ni  Ni74  1  0.26992800  0.14790200  0.28665900  1
  Ni  Ni75  1  0.23007200  0.64790200  0.21334100  1
  Ni  Ni76  1  0.07173100  0.77009600  0.84336600  1
  Ni  Ni77  1  0.57173100  0.72990400  0.65663400  1
  Ni  Ni78  1  0.92826900  0.22990400  0.84336600  1
  Ni  Ni79  1  0.42826900  0.27009600  0.65663400  1
  Ni  Ni80  1  0.77009600  0.92826900  0.15663400  1
  Ni  Ni81  1  0.72990400  0.42826900  0.34336600  1
  Ni  Ni82  1  0.22990400  0.07173100  0.15663400  1
  Ni  Ni83  1  0.27009600  0.57173100  0.34336600  1
  Ni  Ni84  1  0.06722800  0.60704800  0.86141100  1
  Ni  Ni85  1  0.56722800  0.89295200  0.63858900  1
  Ni  Ni86  1  0.93277200  0.39295200  0.86141100  1
  Ni  Ni87  1  0.43277200  0.10704800  0.63858900  1
  Ni  Ni88  1  0.60704800  0.93277200  0.13858900  1
  Ni  Ni89  1  0.89295200  0.43277200  0.36141100  1
  Ni  Ni90  1  0.39295200  0.06722800  0.13858900  1
  Ni  Ni91  1  0.10704800  0.56722800  0.36141100  1
  Ni  Ni92  1  0.14919500  0.55571700  0.73278500  1
  Ni  Ni93  1  0.64919500  0.94428300  0.76721500  1
  Ni  Ni94  1  0.85080500  0.44428300  0.73278500  1
  Ni  Ni95  1  0.35080500  0.05571700  0.76721500  1
  Ni  Ni96  1  0.55571700  0.85080500  0.26721500  1
  Ni  Ni97  1  0.94428300  0.35080500  0.23278500  1
  Ni  Ni98  1  0.44428300  0.14919500  0.26721500  1
  Ni  Ni99  1  0.05571700  0.64919500  0.23278500  1
  Ni  Ni100  1  0.44552900  0.56905000  0.58886200  1
  Ni  Ni101  1  0.94552900  0.93095000  0.91113800  1
  Ni  Ni102  1  0.55447100  0.43095000  0.58886200  1
  Ni  Ni103  1  0.05447100  0.06905000  0.91113800  1
  Ni  Ni104  1  0.56905000  0.55447100  0.41113800  1
  Ni  Ni105  1  0.93095000  0.05447100  0.08886200  1
  Ni  Ni106  1  0.43095000  0.44552900  0.41113800  1
  Ni  Ni107  1  0.06905000  0.94552900  0.08886200  1
  Cu  Cu108  1  0.42416600  0.72740500  0.10548300  1
  Cu  Cu109  1  0.92416600  0.77259500  0.39451700  1
  Cu  Cu110  1  0.57583400  0.27259500  0.10548300  1
  Cu  Cu111  1  0.07583400  0.22740500  0.39451700  1
  Cu  Cu112  1  0.72740500  0.57583400  0.89451700  1
  Cu  Cu113  1  0.77259500  0.07583400  0.60548300  1
  Cu  Cu114  1  0.27259500  0.42416600  0.89451700  1
  Cu  Cu115  1  0.22740500  0.92416600  0.60548300  1
  Cu  Cu116  1  0.62691500  0.70750200  0.08582900  1
  Cu  Cu117  1  0.12691500  0.79249800  0.41417100  1
  Cu  Cu118  1  0.37308500  0.29249800  0.08582900  1
  Cu  Cu119  1  0.87308500  0.20750200  0.41417100  1
  Cu  Cu120  1  0.70750200  0.37308500  0.91417100  1
  Cu  Cu121  1  0.79249800  0.87308500  0.58582900  1
  Cu  Cu122  1  0.29249800  0.62691500  0.91417100  1
  Cu  Cu123  1  0.20750200  0.12691500  0.58582900  1
  Cu  Cu124  1  0.52981500  0.61274700  0.23791900  1
  Cu  Cu125  1  0.02981500  0.88725300  0.26208100  1
  Cu  Cu126  1  0.47018500  0.38725300  0.23791900  1
  Cu  Cu127  1  0.97018500  0.11274700  0.26208100  1
  Cu  Cu128  1  0.61274700  0.47018500  0.76208100  1
  Cu  Cu129  1  0.88725300  0.97018500  0.73791900  1
  Cu  Cu130  1  0.38725300  0.52981500  0.76208100  1
  Cu  Cu131  1  0.11274700  0.02981500  0.73791900  1
  Cu  Cu132  1  0.38056200  0.79957800  0.78035800  1
  Cu  Cu133  1  0.88056200  0.70042200  0.71964200  1
  Cu  Cu134  1  0.61943800  0.20042200  0.78035800  1
  Cu  Cu135  1  0.11943800  0.29957800  0.71964200  1
  Cu  Cu136  1  0.79957800  0.61943800  0.21964200  1
  Cu  Cu137  1  0.70042200  0.11943800  0.28035800  1
  Cu  Cu138  1  0.20042200  0.38056200  0.21964200  1
  Cu  Cu139  1  0.29957800  0.88056200  0.28035800  1
  Cu  Cu140  1  0.47680900  0.88609200  0.93695100  1
  Cu  Cu141  1  0.97680900  0.61390800  0.56304900  1
  Cu  Cu142  1  0.52319100  0.11390800  0.93695100  1
  Cu  Cu143  1  0.02319100  0.38609200  0.56304900  1
  Cu  Cu144  1  0.88609200  0.52319100  0.06304900  1
  Cu  Cu145  1  0.61390800  0.02319100  0.43695100  1
  Cu  Cu146  1  0.11390800  0.47680900  0.06304900  1
  Cu  Cu147  1  0.38609200  0.97680900  0.43695100  1
  Cu  Cu148  1  0.28236800  0.84252700  0.95549000  1
  Cu  Cu149  1  0.78236800  0.65747300  0.54451000  1
  Cu  Cu150  1  0.71763200  0.15747300  0.95549000  1
  Cu  Cu151  1  0.21763200  0.34252700  0.54451000  1
  Cu  Cu152  1  0.84252700  0.71763200  0.04451000  1
  Cu  Cu153  1  0.65747300  0.21763200  0.45549000  1
  Cu  Cu154  1  0.15747300  0.28236800  0.04451000  1
  Cu  Cu155  1  0.34252700  0.78236800  0.45549000  1
  Cu  Cu156  1  0.61468000  0.49181100  0.08649300  1
  Cu  Cu157  1  0.11468000  0.00818900  0.41350700  1
  Cu  Cu158  1  0.38532000  0.50818900  0.08649300  1
  Cu  Cu159  1  0.88532000  0.99181100  0.41350700  1
  Cu  Cu160  1  0.49181100  0.38532000  0.91350700  1
  Cu  Cu161  1  0.00818900  0.88532000  0.58649300  1
  Cu  Cu162  1  0.50818900  0.61468000  0.91350700  1
  Cu  Cu163  1  0.99181100  0.11468000  0.58649300  1
