# generated using pymatgen
data_CuNi2C25
_symmetry_space_group_name_H-M   'P 1'
_cell_length_a   11.58102200
_cell_length_b   5.24723300
_cell_length_c   11.88518336
_cell_angle_alpha   65.81738948
_cell_angle_beta   90.00000000
_cell_angle_gamma   90.00000000
_symmetry_Int_Tables_number   1
_chemical_formula_structural   CuNi2C25
_chemical_formula_sum   'Cu2 Ni4 C50'
_cell_volume   658.86186253
_cell_formula_units_Z   2
loop_
 _symmetry_equiv_pos_site_id
 _symmetry_equiv_pos_as_xyz
  1  'x, y, z'
loop_
 _atom_site_type_symbol
 _atom_site_label
 _atom_site_symmetry_multiplicity
 _atom_site_fract_x
 _atom_site_fract_y
 _atom_site_fract_z
 _atom_site_occupancy
  Ni  Ni0  1  0.83416600  0.04282900  0.92388800  1
  Ni  Ni1  1  0.33416600  0.95717100  0.57611200  1
  Ni  Ni2  1  0.66583400  0.04282900  0.42388800  1
  Ni  Ni3  1  0.16583400  0.95717100  0.07611200  1
  Cu  Cu4  1  0.50000000  0.00000000  0.00000000  1
  Cu  Cu5  1  0.00000000  0.00000000  0.50000000  1
  C  C6  1  0.60098100  0.66805500  0.79764300  1
  C  C7  1  0.10098100  0.33194500  0.70235700  1
  C  C8  1  0.89901900  0.66805500  0.29764300  1
  C  C9  1  0.39901900  0.33194500  0.20235700  1
  C  C10  1  0.00000000  0.50000000  0.00000000  1
  C  C11  1  0.29903400  0.06012200  0.81862300  1
  C  C12  1  0.32843100  0.37872800  0.77387700  1
  C  C13  1  0.82843100  0.62127200  0.72612300  1
  C  C14  1  0.79903400  0.93987800  0.68137700  1
  C  C15  1  0.50000000  0.50000000  0.50000000  1
  C  C16  1  0.20096600  0.06012200  0.31862300  1
  C  C17  1  0.17156900  0.37872800  0.27387700  1
  C  C18  1  0.67156900  0.62127200  0.22612300  1
  C  C19  1  0.70096600  0.93987800  0.18137700  1
  C  C20  1  0.37633900  0.57007200  0.93456800  1
  C  C21  1  0.07194000  0.71223800  0.81908000  1
  C  C22  1  0.57194000  0.28776200  0.68092000  1
  C  C23  1  0.87633900  0.42992800  0.56543200  1
  C  C24  1  0.12366100  0.57007200  0.43456800  1
  C  C25  1  0.42806000  0.71223800  0.31908000  1
  C  C26  1  0.92806000  0.28776200  0.18092000  1
  C  C27  1  0.62366100  0.42992800  0.06543200  1
  C  C28  1  0.61502900  0.66672300  0.96699700  1
  C  C29  1  0.33760000  0.78953900  0.94367600  1
  C  C30  1  0.04069600  0.47787000  0.91042200  1
  C  C31  1  0.40970900  0.57279400  0.82904700  1
  C  C32  1  0.06400100  0.94447100  0.83201500  1
  C  C33  1  0.60975600  0.29830900  0.78109400  1
  C  C34  1  0.78099500  0.75100500  0.74987100  1
  C  C35  1  0.28099500  0.24899500  0.75012900  1
  C  C36  1  0.10975600  0.70169100  0.71890600  1
  C  C37  1  0.90970900  0.42720600  0.67095300  1
  C  C38  1  0.56400100  0.05552900  0.66798500  1
  C  C39  1  0.54069600  0.52213000  0.58957800  1
  C  C40  1  0.83760000  0.21046100  0.55632400  1
  C  C41  1  0.11502900  0.33327700  0.53300300  1
  C  C42  1  0.88497100  0.66672300  0.46699700  1
  C  C43  1  0.16240000  0.78953900  0.44367600  1
  C  C44  1  0.45930400  0.47787000  0.41042200  1
  C  C45  1  0.43599900  0.94447100  0.33201500  1
  C  C46  1  0.09029100  0.57279400  0.32904700  1
  C  C47  1  0.89024400  0.29830900  0.28109400  1
  C  C48  1  0.71900500  0.75100500  0.24987100  1
  C  C49  1  0.21900500  0.24899500  0.25012900  1
  C  C50  1  0.39024400  0.70169100  0.21890600  1
  C  C51  1  0.93599900  0.05552900  0.16798500  1
  C  C52  1  0.59029100  0.42720600  0.17095300  1
  C  C53  1  0.95930400  0.52213000  0.08957800  1
  C  C54  1  0.66240000  0.21046100  0.05632400  1
  C  C55  1  0.38497100  0.33327700  0.03300300  1
