# generated using pymatgen
data_Cu5NiC8
_symmetry_space_group_name_H-M   'P 1'
_cell_length_a   7.61870600
_cell_length_b   7.44492400
_cell_length_c   8.69517919
_cell_angle_alpha   85.19472872
_cell_angle_beta   90.00000000
_cell_angle_gamma   90.00000000
_symmetry_Int_Tables_number   1
_chemical_formula_structural   Cu5NiC8
_chemical_formula_sum   'Cu20 Ni4 C32'
_cell_volume   491.46303012
_cell_formula_units_Z   4
loop_
 _symmetry_equiv_pos_site_id
 _symmetry_equiv_pos_as_xyz
  1  'x, y, z'
loop_
 _atom_site_type_symbol
 _atom_site_label
 _atom_site_symmetry_multiplicity
 _atom_site_fract_x
 _atom_site_fract_y
 _atom_site_fract_z
 _atom_site_occupancy
  C  C0  1  0.30373000  0.42990100  0.03667700  1
  C  C1  1  0.80373000  0.07009900  0.96332300  1
  C  C2  1  0.69627000  0.57009900  0.96332300  1
  C  C3  1  0.19627000  0.92990100  0.03667700  1
  C  C4  1  0.95033200  0.32611400  0.19013100  1
  C  C5  1  0.45033200  0.17388600  0.80986900  1
  C  C6  1  0.04966800  0.67388600  0.80986900  1
  C  C7  1  0.54966800  0.82611400  0.19013100  1
  C  C8  1  0.55366000  0.35327500  0.20523100  1
  C  C9  1  0.05366000  0.14672500  0.79476900  1
  C  C10  1  0.44634000  0.64672500  0.79476900  1
  C  C11  1  0.94634000  0.85327500  0.20523100  1
  C  C12  1  0.43274000  0.17895300  0.20583800  1
  C  C13  1  0.93274000  0.32104700  0.79416200  1
  C  C14  1  0.56726000  0.82104700  0.79416200  1
  C  C15  1  0.06726000  0.67895300  0.20583800  1
  C  C16  1  0.81587700  0.39438800  0.46452000  1
  C  C17  1  0.31587700  0.10561200  0.53548000  1
  C  C18  1  0.18412300  0.60561200  0.53548000  1
  C  C19  1  0.68412300  0.89438800  0.46452000  1
  C  C20  1  0.67513400  0.57566300  0.44978600  1
  C  C21  1  0.17513400  0.92433700  0.55021400  1
  C  C22  1  0.32486600  0.42433700  0.55021400  1
  C  C23  1  0.82486600  0.07566300  0.44978600  1
  C  C24  1  0.78722700  0.52336700  0.61761300  1
  C  C25  1  0.28722700  0.97663300  0.38238700  1
  C  C26  1  0.21277300  0.47663300  0.38238700  1
  C  C27  1  0.71277300  0.02336700  0.61761300  1
  C  C28  1  0.62436400  0.38774300  0.56786200  1
  C  C29  1  0.12436400  0.11225700  0.43213800  1
  C  C30  1  0.37563600  0.61225700  0.43213800  1
  C  C31  1  0.87563600  0.88774300  0.56786200  1
  Ni  Ni32  1  0.72683600  0.47087800  0.52466700  1
  Ni  Ni33  1  0.22683600  0.02912200  0.47533300  1
  Ni  Ni34  1  0.27316400  0.52912200  0.47533300  1
  Ni  Ni35  1  0.77316400  0.97087800  0.52466700  1
  Cu  Cu36  1  0.43098600  0.31087700  0.22519800  1
  Cu  Cu37  1  0.93098600  0.18912300  0.77480200  1
  Cu  Cu38  1  0.56901400  0.68912300  0.77480200  1
  Cu  Cu39  1  0.06901400  0.81087700  0.22519800  1
  Cu  Cu40  1  0.10140600  0.47028300  0.16842200  1
  Cu  Cu41  1  0.60140600  0.02971700  0.83157800  1
  Cu  Cu42  1  0.89859400  0.52971700  0.83157800  1
  Cu  Cu43  1  0.39859400  0.97028300  0.16842200  1
  Cu  Cu44  1  0.94605600  0.25574100  0.36289900  1
  Cu  Cu45  1  0.44605600  0.24425900  0.63710100  1
  Cu  Cu46  1  0.05394400  0.74425900  0.63710100  1
  Cu  Cu47  1  0.55394400  0.75574100  0.36289900  1
  Cu  Cu48  1  0.49064600  0.32808400  0.91399300  1
  Cu  Cu49  1  0.99064600  0.17191600  0.08600700  1
  Cu  Cu50  1  0.50935400  0.67191600  0.08600700  1
  Cu  Cu51  1  0.00935400  0.82808400  0.91399300  1
  Cu  Cu52  1  0.22874400  0.58122600  0.85126300  1
  Cu  Cu53  1  0.72874400  0.91877400  0.14873700  1
  Cu  Cu54  1  0.77125600  0.41877400  0.14873700  1
  Cu  Cu55  1  0.27125600  0.08122600  0.85126300  1
