# generated using pymatgen
data_Cu(NiC3)2
_symmetry_space_group_name_H-M   'P 1'
_cell_length_a   8.29486900
_cell_length_b   9.44043900
_cell_length_c   23.73917000
_cell_angle_alpha   90.00000000
_cell_angle_beta   90.00000000
_cell_angle_gamma   90.00000000
_symmetry_Int_Tables_number   1
_chemical_formula_structural   Cu(NiC3)2
_chemical_formula_sum   'Cu4 Ni8 C24'
_cell_volume   1858.94804715
_cell_formula_units_Z   4
loop_
 _symmetry_equiv_pos_site_id
 _symmetry_equiv_pos_as_xyz
  1  'x, y, z'
loop_
 _atom_site_type_symbol
 _atom_site_label
 _atom_site_symmetry_multiplicity
 _atom_site_fract_x
 _atom_site_fract_y
 _atom_site_fract_z
 _atom_site_occupancy
  Ni  Ni0  1  0.26738500  0.33425300  0.15866200  1
  Ni  Ni1  1  0.76738500  0.66574700  0.15866200  1
  Ni  Ni2  1  0.76738500  0.16574700  0.34133800  1
  Ni  Ni3  1  0.26738500  0.83425300  0.34133800  1
  Ni  Ni4  1  0.73261500  0.16574700  0.65866200  1
  Ni  Ni5  1  0.23261500  0.83425300  0.65866200  1
  Ni  Ni6  1  0.23261500  0.33425300  0.84133800  1
  Ni  Ni7  1  0.73261500  0.66574700  0.84133800  1
  Cu  Cu8  1  0.75000000  0.14871300  0.00000000  1
  Cu  Cu9  1  0.25000000  0.85128700  0.00000000  1
  Cu  Cu10  1  0.25000000  0.35128700  0.50000000  1
  Cu  Cu11  1  0.75000000  0.64871300  0.50000000  1
  C  C12  1  0.94877900  0.92058800  0.07590500  1
  C  C13  1  0.44877900  0.07941200  0.07590500  1
  C  C14  1  0.92060700  0.38302600  0.07638600  1
  C  C15  1  0.42060700  0.61697400  0.07638600  1
  C  C16  1  0.11277800  0.60974400  0.23882400  1
  C  C17  1  0.61277800  0.39025600  0.23882400  1
  C  C18  1  0.11277800  0.10974400  0.26117600  1
  C  C19  1  0.61277800  0.89025600  0.26117600  1
  C  C20  1  0.42060700  0.11697400  0.42361400  1
  C  C21  1  0.92060700  0.88302600  0.42361400  1
  C  C22  1  0.94877900  0.42058800  0.42409500  1
  C  C23  1  0.44877900  0.57941200  0.42409500  1
  C  C24  1  0.55122100  0.42058800  0.57590500  1
  C  C25  1  0.05122100  0.57941200  0.57590500  1
  C  C26  1  0.07939300  0.11697400  0.57638600  1
  C  C27  1  0.57939300  0.88302600  0.57638600  1
  C  C28  1  0.38722200  0.10974400  0.73882400  1
  C  C29  1  0.88722200  0.89025600  0.73882400  1
  C  C30  1  0.88722200  0.39025600  0.76117600  1
  C  C31  1  0.38722200  0.60974400  0.76117600  1
  C  C32  1  0.57939300  0.38302600  0.92361400  1
  C  C33  1  0.07939300  0.61697400  0.92361400  1
  C  C34  1  0.05122100  0.07941200  0.92409500  1
  C  C35  1  0.55122100  0.92058800  0.92409500  1
