# generated using pymatgen
data_Cu19Ni5C16
_symmetry_space_group_name_H-M   'P 1'
_cell_length_a   6.12616400
_cell_length_b   6.15756448
_cell_length_c   12.24860456
_cell_angle_alpha   91.15063837
_cell_angle_beta   91.14042395
_cell_angle_gamma   91.13516551
_symmetry_Int_Tables_number   1
_chemical_formula_structural   Cu19Ni5C16
_chemical_formula_sum   'Cu19 Ni5 C16'
_cell_volume   461.76583402
_cell_formula_units_Z   1
loop_
 _symmetry_equiv_pos_site_id
 _symmetry_equiv_pos_as_xyz
  1  'x, y, z'
loop_
 _atom_site_type_symbol
 _atom_site_label
 _atom_site_symmetry_multiplicity
 _atom_site_fract_x
 _atom_site_fract_y
 _atom_site_fract_z
 _atom_site_occupancy
  C  C0  1  0.50753500  0.49074800  0.25417200  1
  C  C1  1  0.50440800  0.49099900  0.75281600  1
  C  C2  1  0.00992000  0.98609300  0.49898600  1
  C  C3  1  0.25527200  0.94185300  0.71251500  1
  C  C4  1  0.26311400  0.93935400  0.21957700  1
  C  C5  1  0.06081500  0.59857200  0.36902400  1
  C  C6  1  0.07056700  0.58098000  0.87066400  1
  C  C7  1  0.54600900  0.75506600  0.53552800  1
  C  C8  1  0.54498300  0.75446100  0.03856500  1
  C  C9  1  0.02583700  0.01038200  0.98792200  1
  C  C10  1  0.40440200  0.22334000  0.47528900  1
  C  C11  1  0.39841700  0.24282600  0.97620000  1
  C  C12  1  0.94200400  0.42301900  0.11166500  1
  C  C13  1  0.92867600  0.42292900  0.62008800  1
  C  C14  1  0.78047500  0.05508400  0.29745700  1
  C  C15  1  0.77000600  0.05262800  0.79120900  1
  Ni  Ni16  1  0.05129200  0.90003300  0.33318500  1
  Ni  Ni17  1  0.04330900  0.88864100  0.83124800  1
  Ni  Ni18  1  0.31937000  0.96341300  0.55727500  1
  Ni  Ni19  1  0.31878300  0.96452800  0.06070600  1
  Ni  Ni20  1  0.09061700  0.33762600  0.97307300  1
  Cu  Cu21  1  0.19333800  0.56168200  0.20120100  1
  Cu  Cu22  1  0.19281800  0.55644600  0.70018600  1
  Cu  Cu23  1  0.58705000  0.81030300  0.22159900  1
  Cu  Cu24  1  0.58658800  0.80677400  0.71621400  1
  Cu  Cu25  1  0.08407400  0.32992100  0.47343100  1
  Cu  Cu26  1  0.40773400  0.57789800  0.40459200  1
  Cu  Cu27  1  0.42978100  0.58702200  0.90263400  1
  Cu  Cu28  1  0.58790900  0.42926600  0.09278000  1
  Cu  Cu29  1  0.58014800  0.42136200  0.58868100  1
  Cu  Cu30  1  0.87810900  0.71205600  0.02980500  1
  Cu  Cu31  1  0.88276700  0.68827400  0.52549100  1
  Cu  Cu32  1  0.42891400  0.18751000  0.79806000  1
  Cu  Cu33  1  0.43911000  0.19029000  0.30339400  1
  Cu  Cu34  1  0.82393000  0.40680000  0.28814800  1
  Cu  Cu35  1  0.81470600  0.40409100  0.78273800  1
  Cu  Cu36  1  0.69436200  0.04472000  0.45634300  1
  Cu  Cu37  1  0.68370300  0.05448800  0.95175800  1
  Cu  Cu38  1  0.93539800  0.10433000  0.64747000  1
  Cu  Cu39  1  0.93375200  0.10419100  0.14830900  1
