# generated using pymatgen
data_Cu10Ni18C11
_symmetry_space_group_name_H-M   'P 1'
_cell_length_a   9.66914200
_cell_length_b   15.33683700
_cell_length_c   16.06464300
_cell_angle_alpha   90.00000000
_cell_angle_beta   90.00000000
_cell_angle_gamma   90.00000000
_symmetry_Int_Tables_number   1
_chemical_formula_structural   Cu10Ni18C11
_chemical_formula_sum   'Cu20 Ni36 C22'
_cell_volume   2382.29104913
_cell_formula_units_Z   2
loop_
 _symmetry_equiv_pos_site_id
 _symmetry_equiv_pos_as_xyz
  1  'x, y, z'
loop_
 _atom_site_type_symbol
 _atom_site_label
 _atom_site_symmetry_multiplicity
 _atom_site_fract_x
 _atom_site_fract_y
 _atom_site_fract_z
 _atom_site_occupancy
  C  C0  1  0.25414600  0.91383600  0.18728000  1
  C  C1  1  0.25414600  0.08616400  0.81272000  1
  C  C2  1  0.74585400  0.41383600  0.31272000  1
  C  C3  1  0.74585400  0.58616400  0.68728000  1
  C  C4  1  0.74585400  0.08616400  0.81272000  1
  C  C5  1  0.74585400  0.91383600  0.18728000  1
  C  C6  1  0.25414600  0.58616400  0.68728000  1
  C  C7  1  0.25414600  0.41383600  0.31272000  1
  C  C8  1  0.26434700  0.71221200  0.42386300  1
  C  C9  1  0.26434700  0.28778800  0.57613700  1
  C  C10  1  0.73565300  0.21221200  0.07613700  1
  C  C11  1  0.73565300  0.78778800  0.92386300  1
  C  C12  1  0.73565300  0.28778800  0.57613700  1
  C  C13  1  0.73565300  0.71221200  0.42386300  1
  C  C14  1  0.26434700  0.78778800  0.92386300  1
  C  C15  1  0.26434700  0.21221200  0.07613700  1
  C  C16  1  0.00000000  0.50000000  0.50000000  1
  C  C17  1  0.00000000  0.00000000  0.00000000  1
  C  C18  1  0.50000000  0.69468100  0.18559300  1
  C  C19  1  0.50000000  0.30531900  0.81440700  1
  C  C20  1  0.50000000  0.19468100  0.31440700  1
  C  C21  1  0.50000000  0.80531900  0.68559300  1
  Ni  Ni22  1  0.00000000  0.65394900  0.55505500  1
  Ni  Ni23  1  0.00000000  0.34605100  0.44494500  1
  Ni  Ni24  1  0.00000000  0.15394900  0.94494500  1
  Ni  Ni25  1  0.00000000  0.84605100  0.05505500  1
  Ni  Ni26  1  0.26198800  0.50000000  0.50000000  1
  Ni  Ni27  1  0.73801200  0.00000000  0.00000000  1
  Ni  Ni28  1  0.73801200  0.50000000  0.50000000  1
  Ni  Ni29  1  0.26198800  0.00000000  0.00000000  1
  Ni  Ni30  1  0.00000000  0.56070600  0.35374300  1
  Ni  Ni31  1  0.00000000  0.43929400  0.64625700  1
  Ni  Ni32  1  0.00000000  0.06070600  0.14625700  1
  Ni  Ni33  1  0.00000000  0.93929400  0.85374300  1
  Ni  Ni34  1  0.50000000  0.80859300  0.30258800  1
  Ni  Ni35  1  0.50000000  0.19140700  0.69741200  1
  Ni  Ni36  1  0.50000000  0.30859300  0.19741200  1
  Ni  Ni37  1  0.50000000  0.69140700  0.80258800  1
  Ni  Ni38  1  0.23865900  0.69291500  0.19215400  1
  Ni  Ni39  1  0.23865900  0.30708500  0.80784600  1
  Ni  Ni40  1  0.76134100  0.19291500  0.30784600  1
  Ni  Ni41  1  0.76134100  0.80708500  0.69215400  1
  Ni  Ni42  1  0.76134100  0.30708500  0.80784600  1
  Ni  Ni43  1  0.76134100  0.69291500  0.19215400  1
  Ni  Ni44  1  0.23865900  0.80708500  0.69215400  1
  Ni  Ni45  1  0.23865900  0.19291500  0.30784600  1
  Ni  Ni46  1  0.50000000  0.57398900  0.29304800  1
  Ni  Ni47  1  0.50000000  0.42601100  0.70695200  1
  Ni  Ni48  1  0.50000000  0.07398900  0.20695200  1
  Ni  Ni49  1  0.50000000  0.92601100  0.79304800  1
  Ni  Ni50  1  0.50000000  0.81560200  0.07952800  1
  Ni  Ni51  1  0.50000000  0.18439800  0.92047200  1
  Ni  Ni52  1  0.50000000  0.31560200  0.42047200  1
  Ni  Ni53  1  0.50000000  0.68439800  0.57952800  1
  Ni  Ni54  1  0.50000000  0.59394200  0.06399700  1
  Ni  Ni55  1  0.50000000  0.40605800  0.93600300  1
  Ni  Ni56  1  0.50000000  0.09394200  0.43600300  1
  Ni  Ni57  1  0.50000000  0.90605800  0.56399700  1
  Cu  Cu58  1  0.00000000  0.84783500  0.32807300  1
  Cu  Cu59  1  0.00000000  0.15216500  0.67192700  1
  Cu  Cu60  1  0.00000000  0.34783500  0.17192700  1
  Cu  Cu61  1  0.00000000  0.65216500  0.82807300  1
  Cu  Cu62  1  0.35816300  0.88160400  0.50705700  1
  Cu  Cu63  1  0.35816300  0.11839600  0.49294300  1
  Cu  Cu64  1  0.64183700  0.38160400  0.99294300  1
  Cu  Cu65  1  0.64183700  0.61839600  0.00705700  1
  Cu  Cu66  1  0.64183700  0.11839600  0.49294300  1
  Cu  Cu67  1  0.64183700  0.88160400  0.50705700  1
  Cu  Cu68  1  0.35816300  0.61839600  0.00705700  1
  Cu  Cu69  1  0.35816300  0.38160400  0.99294300  1
  Cu  Cu70  1  0.07513500  0.92628400  0.35490100  1
  Cu  Cu71  1  0.07513500  0.07371600  0.64509900  1
  Cu  Cu72  1  0.92486500  0.42628400  0.14509900  1
  Cu  Cu73  1  0.92486500  0.57371600  0.85490100  1
  Cu  Cu74  1  0.92486500  0.07371600  0.64509900  1
  Cu  Cu75  1  0.92486500  0.92628400  0.35490100  1
  Cu  Cu76  1  0.07513500  0.57371600  0.85490100  1
  Cu  Cu77  1  0.07513500  0.42628400  0.14509900  1
