# generated using pymatgen
data_Cu2NiC4
_symmetry_space_group_name_H-M   'P 1'
_cell_length_a   3.42672800
_cell_length_b   10.40445100
_cell_length_c   12.04401000
_cell_angle_alpha   90.00000000
_cell_angle_beta   90.00000000
_cell_angle_gamma   90.00000000
_symmetry_Int_Tables_number   1
_chemical_formula_structural   Cu2NiC4
_chemical_formula_sum   'Cu8 Ni4 C16'
_cell_volume   429.40778117
_cell_formula_units_Z   4
loop_
 _symmetry_equiv_pos_site_id
 _symmetry_equiv_pos_as_xyz
  1  'x, y, z'
loop_
 _atom_site_type_symbol
 _atom_site_label
 _atom_site_symmetry_multiplicity
 _atom_site_fract_x
 _atom_site_fract_y
 _atom_site_fract_z
 _atom_site_occupancy
  Ni  Ni0  1  0.75000000  0.24784400  0.35136400  1
  Ni  Ni1  1  0.25000000  0.25215600  0.85136400  1
  Ni  Ni2  1  0.75000000  0.74784400  0.14863600  1
  Ni  Ni3  1  0.25000000  0.75215600  0.64863600  1
  Cu  Cu4  1  0.75000000  0.07609400  0.60876800  1
  Cu  Cu5  1  0.75000000  0.07413200  0.11036500  1
  Cu  Cu6  1  0.25000000  0.42586800  0.61036500  1
  Cu  Cu7  1  0.25000000  0.42390600  0.10876800  1
  Cu  Cu8  1  0.75000000  0.57609400  0.89123200  1
  Cu  Cu9  1  0.75000000  0.57413200  0.38963500  1
  Cu  Cu10  1  0.25000000  0.92586800  0.88963500  1
  Cu  Cu11  1  0.25000000  0.92390600  0.39123200  1
  C  C12  1  0.25000000  0.01625700  0.71747500  1
  C  C13  1  0.75000000  0.06764300  0.92582400  1
  C  C14  1  0.25000000  0.11321000  0.48367300  1
  C  C15  1  0.25000000  0.21107700  0.15472000  1
  C  C16  1  0.75000000  0.28892300  0.65472000  1
  C  C17  1  0.75000000  0.38679000  0.98367300  1
  C  C18  1  0.25000000  0.43235700  0.42582400  1
  C  C19  1  0.75000000  0.48374300  0.21747500  1
  C  C20  1  0.25000000  0.51625700  0.78252500  1
  C  C21  1  0.75000000  0.56764300  0.57417600  1
  C  C22  1  0.25000000  0.61321000  0.01632700  1
  C  C23  1  0.25000000  0.71107700  0.34528000  1
  C  C24  1  0.75000000  0.78892300  0.84528000  1
  C  C25  1  0.75000000  0.88679000  0.51632700  1
  C  C26  1  0.25000000  0.93235700  0.07417600  1
  C  C27  1  0.75000000  0.98374300  0.28252500  1
