# generated using pymatgen
data_Cu(NiC2)2
_symmetry_space_group_name_H-M   'P 1'
_cell_length_a   6.18307900
_cell_length_b   7.34413500
_cell_length_c   12.55808600
_cell_angle_alpha   90.00000000
_cell_angle_beta   90.00000000
_cell_angle_gamma   90.00000000
_symmetry_Int_Tables_number   1
_chemical_formula_structural   Cu(NiC2)2
_chemical_formula_sum   'Cu4 Ni8 C16'
_cell_volume   570.25473463
_cell_formula_units_Z   4
loop_
 _symmetry_equiv_pos_site_id
 _symmetry_equiv_pos_as_xyz
  1  'x, y, z'
loop_
 _atom_site_type_symbol
 _atom_site_label
 _atom_site_symmetry_multiplicity
 _atom_site_fract_x
 _atom_site_fract_y
 _atom_site_fract_z
 _atom_site_occupancy
  Ni  Ni0  1  0.49796100  0.75000000  0.72718800  1
  Ni  Ni1  1  0.50203900  0.25000000  0.27281200  1
  Ni  Ni2  1  0.00000000  0.50000000  0.50000000  1
  Ni  Ni3  1  0.00203900  0.75000000  0.22718800  1
  Ni  Ni4  1  0.99796100  0.25000000  0.77281200  1
  Ni  Ni5  1  0.50000000  0.00000000  0.00000000  1
  Ni  Ni6  1  0.00000000  0.00000000  0.50000000  1
  Ni  Ni7  1  0.50000000  0.50000000  0.00000000  1
  Cu  Cu8  1  0.92926900  0.25000000  0.08977100  1
  Cu  Cu9  1  0.57073100  0.25000000  0.58977100  1
  Cu  Cu10  1  0.42926900  0.75000000  0.41022900  1
  Cu  Cu11  1  0.07073100  0.75000000  0.91022900  1
  C  C12  1  0.77149200  0.50818100  0.66328400  1
  C  C13  1  0.72850800  0.99181900  0.16328400  1
  C  C14  1  0.77803400  0.25000000  0.42309100  1
  C  C15  1  0.22850800  0.00818100  0.33671600  1
  C  C16  1  0.22196600  0.75000000  0.57690900  1
  C  C17  1  0.72196600  0.25000000  0.92309100  1
  C  C18  1  0.66570800  0.75000000  0.91116600  1
  C  C19  1  0.83429200  0.75000000  0.41116600  1
  C  C20  1  0.16570800  0.25000000  0.58883400  1
  C  C21  1  0.33429200  0.25000000  0.08883400  1
  C  C22  1  0.72850800  0.50818100  0.16328400  1
  C  C23  1  0.27803400  0.75000000  0.07690900  1
  C  C24  1  0.27149200  0.49181900  0.83671600  1
  C  C25  1  0.77149200  0.99181900  0.66328400  1
  C  C26  1  0.22850800  0.49181900  0.33671600  1
  C  C27  1  0.27149200  0.00818100  0.83671600  1
