# generated using pymatgen
data_Cu7NiC5
_symmetry_space_group_name_H-M   'P 1'
_cell_length_a   6.51258800
_cell_length_b   9.66912000
_cell_length_c   9.77918424
_cell_angle_alpha   62.30373878
_cell_angle_beta   90.00000000
_cell_angle_gamma   90.00000000
_symmetry_Int_Tables_number   1
_chemical_formula_structural   Cu7NiC5
_chemical_formula_sum   'Cu28 Ni4 C20'
_cell_volume   545.24846469
_cell_formula_units_Z   4
loop_
 _symmetry_equiv_pos_site_id
 _symmetry_equiv_pos_as_xyz
  1  'x, y, z'
loop_
 _atom_site_type_symbol
 _atom_site_label
 _atom_site_symmetry_multiplicity
 _atom_site_fract_x
 _atom_site_fract_y
 _atom_site_fract_z
 _atom_site_occupancy
  C  C0  1  0.26619000  0.68804300  0.88902600  1
  C  C1  1  0.23381000  0.18804300  0.88902600  1
  C  C2  1  0.02197600  0.51908900  0.71128100  1
  C  C3  1  0.47802400  0.01908900  0.71128100  1
  C  C4  1  0.75138500  0.32139500  0.62588800  1
  C  C5  1  0.74861500  0.82139500  0.62588800  1
  C  C6  1  0.24861500  0.67860500  0.37411200  1
  C  C7  1  0.25138500  0.17860500  0.37411200  1
  C  C8  1  0.97802400  0.48091100  0.28871900  1
  C  C9  1  0.52197600  0.98091100  0.28871900  1
  C  C10  1  0.73381000  0.31195700  0.11097400  1
  C  C11  1  0.76619000  0.81195700  0.11097400  1
  C  C12  1  0.52193700  0.48621900  0.75153200  1
  C  C13  1  0.97806300  0.98621900  0.75153200  1
  C  C14  1  0.47806300  0.51378100  0.24846800  1
  C  C15  1  0.02193700  0.01378100  0.24846800  1
  C  C16  1  0.23796100  0.31305800  0.59198900  1
  C  C17  1  0.26203900  0.81305800  0.59198900  1
  C  C18  1  0.76203900  0.68694200  0.40801100  1
  C  C19  1  0.73796100  0.18694200  0.40801100  1
  Ni  Ni20  1  0.75630400  0.64307200  0.94623600  1
  Ni  Ni21  1  0.74369600  0.14307200  0.94623600  1
  Ni  Ni22  1  0.24369600  0.35692800  0.05376400  1
  Ni  Ni23  1  0.25630400  0.85692800  0.05376400  1
  Cu  Cu24  1  0.69865500  0.28235500  0.92642700  1
  Cu  Cu25  1  0.80134500  0.78235500  0.92642700  1
  Cu  Cu26  1  0.27548000  0.46772400  0.91204800  1
  Cu  Cu27  1  0.74470300  0.61108700  0.83306000  1
  Cu  Cu28  1  0.22452000  0.96772400  0.91204800  1
  Cu  Cu29  1  0.75529700  0.11108700  0.83306000  1
  Cu  Cu30  1  0.05670800  0.32885700  0.68535600  1
  Cu  Cu31  1  0.43454400  0.31312400  0.68248400  1
  Cu  Cu32  1  0.06545600  0.81312400  0.68248400  1
  Cu  Cu33  1  0.44329200  0.82885700  0.68535600  1
  Cu  Cu34  1  0.75814100  0.55673600  0.57810900  1
  Cu  Cu35  1  0.27706400  0.65099200  0.59289700  1
  Cu  Cu36  1  0.74185900  0.05673600  0.57810900  1
  Cu  Cu37  1  0.22293600  0.15099200  0.59289700  1
  Cu  Cu38  1  0.72293600  0.34900800  0.40710300  1
  Cu  Cu39  1  0.24185900  0.44326400  0.42189100  1
  Cu  Cu40  1  0.77706400  0.84900800  0.40710300  1
  Cu  Cu41  1  0.25814100  0.94326400  0.42189100  1
  Cu  Cu42  1  0.94329200  0.67114300  0.31464400  1
  Cu  Cu43  1  0.56545600  0.68687600  0.31751600  1
  Cu  Cu44  1  0.93454400  0.18687600  0.31751600  1
  Cu  Cu45  1  0.55670800  0.17114300  0.31464400  1
  Cu  Cu46  1  0.25529700  0.38891300  0.16694000  1
  Cu  Cu47  1  0.72452000  0.53227600  0.08795200  1
  Cu  Cu48  1  0.24470300  0.88891300  0.16694000  1
  Cu  Cu49  1  0.77548000  0.03227600  0.08795200  1
  Cu  Cu50  1  0.30134500  0.71764500  0.07357300  1
  Cu  Cu51  1  0.19865500  0.21764500  0.07357300  1
