# generated using pymatgen
data_Cu(NiC4)2
_symmetry_space_group_name_H-M   'P 1'
_cell_length_a   5.07789297
_cell_length_b   5.07789245
_cell_length_c   10.13828400
_cell_angle_alpha   90.00000000
_cell_angle_beta   90.00000000
_cell_angle_gamma   120.04390019
_symmetry_Int_Tables_number   1
_chemical_formula_structural   Cu(NiC4)2
_chemical_formula_sum   'Cu2 Ni4 C16'
_cell_volume   226.29233203
_cell_formula_units_Z   2
loop_
 _symmetry_equiv_pos_site_id
 _symmetry_equiv_pos_as_xyz
  1  'x, y, z'
loop_
 _atom_site_type_symbol
 _atom_site_label
 _atom_site_symmetry_multiplicity
 _atom_site_fract_x
 _atom_site_fract_y
 _atom_site_fract_z
 _atom_site_occupancy
  C  C0  1  0.15188400  0.65188400  0.75000000  1
  C  C1  1  0.34811600  0.84811600  0.25000000  1
  C  C2  1  0.65188400  0.15188400  0.75000000  1
  C  C3  1  0.84811600  0.34811600  0.25000000  1
  Ni  Ni4  1  0.16368800  0.83631200  0.50000000  1
  Ni  Ni5  1  0.33631200  0.66368800  0.00000000  1
  Ni  Ni6  1  0.66368800  0.33631200  0.00000000  1
  Ni  Ni7  1  0.83631200  0.16368800  0.50000000  1
  Cu  Cu8  1  0.00000000  0.00000000  0.00000000  1
  Cu  Cu9  1  0.50000000  0.50000000  0.50000000  1
  C  C10  1  0.00678400  0.67491600  0.10528400  1
  C  C11  1  0.99321600  0.32508400  0.89471600  1
  C  C12  1  0.17491600  0.50678400  0.39471600  1
  C  C13  1  0.49321600  0.82508400  0.60528400  1
  C  C14  1  0.18807800  0.18807800  0.59936000  1
  C  C15  1  0.31192200  0.31192200  0.09936000  1
  C  C16  1  0.68807800  0.68807800  0.90064000  1
  C  C17  1  0.32508400  0.99321600  0.89471600  1
  C  C18  1  0.81192200  0.81192200  0.40064000  1
  C  C19  1  0.50678400  0.17491600  0.39471600  1
  C  C20  1  0.82508400  0.49321600  0.60528400  1
  C  C21  1  0.67491600  0.00678400  0.10528400  1
