# generated using pymatgen
data_CuNi7C4
_symmetry_space_group_name_H-M   'P 1'
_cell_length_a   4.96270900
_cell_length_b   7.00010200
_cell_length_c   7.17883658
_cell_angle_alpha   78.24050152
_cell_angle_beta   90.00000000
_cell_angle_gamma   90.00000000
_symmetry_Int_Tables_number   1
_chemical_formula_structural   CuNi7C4
_chemical_formula_sum   'Cu2 Ni14 C8'
_cell_volume   244.15472152
_cell_formula_units_Z   2
loop_
 _symmetry_equiv_pos_site_id
 _symmetry_equiv_pos_as_xyz
  1  'x, y, z'
loop_
 _atom_site_type_symbol
 _atom_site_label
 _atom_site_symmetry_multiplicity
 _atom_site_fract_x
 _atom_site_fract_y
 _atom_site_fract_z
 _atom_site_occupancy
  C  C0  1  0.26434200  0.82403800  0.06401600  1
  C  C1  1  0.74571600  0.17185700  0.41287200  1
  C  C2  1  0.26194100  0.32406900  0.06987100  1
  C  C3  1  0.72852600  0.67234100  0.43291900  1
  C  C4  1  0.24571600  0.82814300  0.58712800  1
  C  C5  1  0.76434200  0.17596200  0.93598400  1
  C  C6  1  0.76194100  0.67593100  0.93012900  1
  C  C7  1  0.22852600  0.32765900  0.56708100  1
  Ni  Ni8  1  0.93559200  0.19025100  0.16593900  1
  Ni  Ni9  1  0.43494500  0.07672100  0.06498900  1
  Ni  Ni10  1  0.08967200  0.57776000  0.06137100  1
  Ni  Ni11  1  0.06647100  0.07884500  0.55803400  1
  Ni  Ni12  1  0.58368700  0.69070400  0.17113000  1
  Ni  Ni13  1  0.56647100  0.92115500  0.44196600  1
  Ni  Ni14  1  0.91406700  0.69011800  0.67175400  1
  Ni  Ni15  1  0.40589000  0.57712100  0.55963400  1
  Ni  Ni16  1  0.93494500  0.92327900  0.93501100  1
  Ni  Ni17  1  0.43559200  0.80974900  0.83406100  1
  Ni  Ni18  1  0.41406700  0.30988200  0.32824600  1
  Ni  Ni19  1  0.90589000  0.42287900  0.44036600  1
  Ni  Ni20  1  0.08368700  0.30929600  0.82887000  1
  Ni  Ni21  1  0.58967200  0.42224000  0.93862900  1
  Cu  Cu22  1  0.56915100  0.19001000  0.68351900  1
  Cu  Cu23  1  0.06915100  0.80999000  0.31648100  1
