# generated using pymatgen
data_Cu4NiC
_symmetry_space_group_name_H-M   'P 1'
_cell_length_a   5.79332700
_cell_length_b   7.62382200
_cell_length_c   9.39070100
_cell_angle_alpha   90.00000000
_cell_angle_beta   90.00000000
_cell_angle_gamma   90.00000000
_symmetry_Int_Tables_number   1
_chemical_formula_structural   Cu4NiC
_chemical_formula_sum   'Cu16 Ni4 C4'
_cell_volume   414.76185039
_cell_formula_units_Z   4
loop_
 _symmetry_equiv_pos_site_id
 _symmetry_equiv_pos_as_xyz
  1  'x, y, z'
loop_
 _atom_site_type_symbol
 _atom_site_label
 _atom_site_symmetry_multiplicity
 _atom_site_fract_x
 _atom_site_fract_y
 _atom_site_fract_z
 _atom_site_occupancy
  C  C0  1  0.25000000  0.30430900  0.93480900  1
  C  C1  1  0.25000000  0.19569100  0.43480900  1
  C  C2  1  0.75000000  0.69569100  0.06519100  1
  C  C3  1  0.75000000  0.80430900  0.56519100  1
  Ni  Ni4  1  0.25000000  0.83942100  0.82123900  1
  Ni  Ni5  1  0.25000000  0.66057900  0.32123900  1
  Ni  Ni6  1  0.75000000  0.16057900  0.17876100  1
  Ni  Ni7  1  0.75000000  0.33942100  0.67876100  1
  Cu  Cu8  1  0.25000000  0.45473700  0.81353300  1
  Cu  Cu9  1  0.25000000  0.04526300  0.31353300  1
  Cu  Cu10  1  0.75000000  0.54526300  0.18646700  1
  Cu  Cu11  1  0.75000000  0.95473700  0.68646700  1
  Cu  Cu12  1  0.25000000  0.39400000  0.09027300  1
  Cu  Cu13  1  0.25000000  0.10600000  0.59027300  1
  Cu  Cu14  1  0.75000000  0.60600000  0.90972700  1
  Cu  Cu15  1  0.75000000  0.89400000  0.40972700  1
  Cu  Cu16  1  0.02112800  0.18377000  0.91732700  1
  Cu  Cu17  1  0.47887200  0.31623000  0.41732700  1
  Cu  Cu18  1  0.52112800  0.81623000  0.08267300  1
  Cu  Cu19  1  0.97887200  0.68377000  0.58267300  1
  Cu  Cu20  1  0.97887200  0.81623000  0.08267300  1
  Cu  Cu21  1  0.52112800  0.68377000  0.58267300  1
  Cu  Cu22  1  0.47887200  0.18377000  0.91732700  1
  Cu  Cu23  1  0.02112800  0.31623000  0.41732700  1
