# generated using pymatgen
data_Cu3NiC10
_symmetry_space_group_name_H-M   'P 1'
_cell_length_a   8.41922200
_cell_length_b   8.99286100
_cell_length_c   9.06504100
_cell_angle_alpha   90.00000000
_cell_angle_beta   90.00000000
_cell_angle_gamma   90.00000000
_symmetry_Int_Tables_number   1
_chemical_formula_structural   Cu3NiC10
_chemical_formula_sum   'Cu12 Ni4 C40'
_cell_volume   686.34048085
_cell_formula_units_Z   4
loop_
 _symmetry_equiv_pos_site_id
 _symmetry_equiv_pos_as_xyz
  1  'x, y, z'
loop_
 _atom_site_type_symbol
 _atom_site_label
 _atom_site_symmetry_multiplicity
 _atom_site_fract_x
 _atom_site_fract_y
 _atom_site_fract_z
 _atom_site_occupancy
  C  C0  1  0.87752600  0.42272000  0.10770100  1
  C  C1  1  0.12247400  0.92272000  0.39229900  1
  C  C2  1  0.62247400  0.57728000  0.60770100  1
  C  C3  1  0.37752600  0.07728000  0.89229900  1
  Ni  Ni4  1  0.09882700  0.13878000  0.11624300  1
  Ni  Ni5  1  0.90117300  0.63878000  0.38375700  1
  Ni  Ni6  1  0.40117300  0.86122000  0.61624300  1
  Ni  Ni7  1  0.59882700  0.36122000  0.88375700  1
  Cu  Cu8  1  0.95219400  0.82445300  0.04793100  1
  Cu  Cu9  1  0.72683100  0.07614100  0.06471000  1
  Cu  Cu10  1  0.56107000  0.55969300  0.23124400  1
  Cu  Cu11  1  0.43893000  0.05969300  0.26875600  1
  Cu  Cu12  1  0.27316900  0.57614100  0.43529000  1
  Cu  Cu13  1  0.04780600  0.32445300  0.45206900  1
  Cu  Cu14  1  0.54780600  0.17554700  0.54793100  1
  Cu  Cu15  1  0.77316900  0.92385900  0.56471000  1
  Cu  Cu16  1  0.93893000  0.44030700  0.73124400  1
  Cu  Cu17  1  0.06107000  0.94030700  0.76875600  1
  Cu  Cu18  1  0.22683100  0.42385900  0.93529000  1
  Cu  Cu19  1  0.45219400  0.67554700  0.95206900  1
  C  C20  1  0.78761300  0.91485500  0.01335500  1
  C  C21  1  0.13058200  0.35475300  0.05836000  1
  C  C22  1  0.91537200  0.67390200  0.10781800  1
  C  C23  1  0.52300800  0.69465200  0.11693800  1
  C  C24  1  0.86416600  0.16664100  0.12284800  1
  C  C25  1  0.33246000  0.11864800  0.14791900  1
  C  C26  1  0.61068200  0.42535700  0.14556000  1
  C  C27  1  0.06035200  0.92171900  0.14126800  1
  C  C28  1  0.61220300  0.02904100  0.19819500  1
  C  C29  1  0.38779700  0.52904100  0.30180500  1
  C  C30  1  0.93964800  0.42171900  0.35873200  1
  C  C31  1  0.38931800  0.92535700  0.35444000  1
  C  C32  1  0.66754000  0.61864800  0.35208100  1
  C  C33  1  0.13583400  0.66664100  0.37715200  1
  C  C34  1  0.47699200  0.19465200  0.38306200  1
  C  C35  1  0.08462800  0.17390200  0.39218200  1
  C  C36  1  0.86941800  0.85475300  0.44164000  1
  C  C37  1  0.21238700  0.41485500  0.48664500  1
  C  C38  1  0.71238700  0.08514500  0.51335500  1
  C  C39  1  0.36941800  0.64524700  0.55836000  1
  C  C40  1  0.58462800  0.32609800  0.60781800  1
  C  C41  1  0.97699200  0.30534800  0.61693800  1
  C  C42  1  0.63583400  0.83335900  0.62284800  1
  C  C43  1  0.16754000  0.88135200  0.64791900  1
  C  C44  1  0.88931800  0.57464300  0.64556000  1
  C  C45  1  0.43964800  0.07828100  0.64126800  1
  C  C46  1  0.88779700  0.97095900  0.69819500  1
  C  C47  1  0.11220300  0.47095900  0.80180500  1
  C  C48  1  0.56035200  0.57828100  0.85873200  1
  C  C49  1  0.11068200  0.07464300  0.85444000  1
  C  C50  1  0.83246000  0.38135200  0.85208100  1
  C  C51  1  0.36416600  0.33335900  0.87715200  1
  C  C52  1  0.02300800  0.80534800  0.88306200  1
  C  C53  1  0.41537200  0.82609800  0.89218200  1
  C  C54  1  0.63058200  0.14524700  0.94164000  1
  C  C55  1  0.28761300  0.58514500  0.98664500  1
