# generated using pymatgen
data_Cu2Ni2C17
_symmetry_space_group_name_H-M   'P 1'
_cell_length_a   17.48993073
_cell_length_b   17.48993073
_cell_length_c   17.48993073
_cell_angle_alpha   166.85181212
_cell_angle_beta   166.85181212
_cell_angle_gamma   18.63560797
_symmetry_Int_Tables_number   1
_chemical_formula_structural   Cu2Ni2C17
_chemical_formula_sum   'Cu2 Ni2 C17'
_cell_volume   276.80609916
_cell_formula_units_Z   1
loop_
 _symmetry_equiv_pos_site_id
 _symmetry_equiv_pos_as_xyz
  1  'x, y, z'
loop_
 _atom_site_type_symbol
 _atom_site_label
 _atom_site_symmetry_multiplicity
 _atom_site_fract_x
 _atom_site_fract_y
 _atom_site_fract_z
 _atom_site_occupancy
  Ni  Ni0  1  0.61648800  0.61648800  0.00000000  1
  Ni  Ni1  1  0.38351200  0.38351200  0.00000000  1
  Cu  Cu2  1  0.25000000  0.75000000  0.50000000  1
  Cu  Cu3  1  0.75000000  0.25000000  0.50000000  1
  C  C4  1  0.94381300  0.94381300  0.00000000  1
  C  C5  1  0.82122000  0.82122000  0.00000000  1
  C  C6  1  0.05618700  0.05618700  0.00000000  1
  C  C7  1  0.17878000  0.17878000  0.00000000  1
  C  C8  1  0.00000000  0.00000000  0.00000000  1
  C  C9  1  0.06238000  0.56238000  0.50000000  1
  C  C10  1  0.17323000  0.67323000  0.50000000  1
  C  C11  1  0.32677000  0.82677000  0.50000000  1
  C  C12  1  0.43762000  0.93762000  0.50000000  1
  C  C13  1  0.76618400  0.76618400  0.00000000  1
  C  C14  1  0.88307600  0.88307600  0.00000000  1
  C  C15  1  0.11692400  0.11692400  0.00000000  1
  C  C16  1  0.23381600  0.23381600  0.00000000  1
  C  C17  1  0.67323000  0.17323000  0.50000000  1
  C  C18  1  0.56238000  0.06238000  0.50000000  1
  C  C19  1  0.93762000  0.43762000  0.50000000  1
  C  C20  1  0.82677000  0.32677000  0.50000000  1
