# generated using pymatgen
data_Cu3(NiC4)5
_symmetry_space_group_name_H-M   'P 1'
_cell_length_a   5.87839103
_cell_length_b   5.87839103
_cell_length_c   9.57075341
_cell_angle_alpha   89.23048088
_cell_angle_beta   89.23048088
_cell_angle_gamma   60.97572659
_symmetry_Int_Tables_number   1
_chemical_formula_structural   Cu3(NiC4)5
_chemical_formula_sum   'Cu3 Ni5 C20'
_cell_volume   289.15289295
_cell_formula_units_Z   1
loop_
 _symmetry_equiv_pos_site_id
 _symmetry_equiv_pos_as_xyz
  1  'x, y, z'
loop_
 _atom_site_type_symbol
 _atom_site_label
 _atom_site_symmetry_multiplicity
 _atom_site_fract_x
 _atom_site_fract_y
 _atom_site_fract_z
 _atom_site_occupancy
  C  C0  1  0.66749800  0.66749800  0.89609800  1
  C  C1  1  0.99948900  0.99948900  0.99798200  1
  C  C2  1  0.99869000  0.99869000  0.49378900  1
  C  C3  1  0.33469800  0.33469800  0.39153800  1
  Ni  Ni4  1  0.66112800  0.16500900  0.71513800  1
  Ni  Ni5  1  0.66305800  0.66305800  0.48591400  1
  Ni  Ni6  1  0.82639200  0.82639200  0.21734000  1
  Ni  Ni7  1  0.33451500  0.33451500  0.99238800  1
  Ni  Ni8  1  0.16500900  0.66112800  0.71513800  1
  Cu  Cu9  1  0.82623300  0.34127900  0.21246600  1
  Cu  Cu10  1  0.34127900  0.82623300  0.21246600  1
  Cu  Cu11  1  0.16928600  0.16928600  0.71346300  1
  C  C12  1  0.82671700  0.32174600  0.60402000  1
  C  C13  1  0.51913100  0.51913100  0.33653200  1
  C  C14  1  0.67661400  0.67661400  0.10329700  1
  C  C15  1  0.99453700  0.99453700  0.30589300  1
  C  C16  1  0.99686900  0.99686900  0.81271100  1
  C  C17  1  0.32174600  0.82671700  0.60402000  1
  C  C18  1  0.96341300  0.52267300  0.34007200  1
  C  C19  1  0.52267300  0.96341300  0.34007200  1
  C  C20  1  0.17297900  0.17297900  0.09099400  1
  C  C21  1  0.83350200  0.83350200  0.60772600  1
  C  C22  1  0.48707400  0.04003100  0.83946500  1
  C  C23  1  0.04003100  0.48707400  0.83946500  1
  C  C24  1  0.33944000  0.33944000  0.60367900  1
  C  C25  1  0.66530700  0.16854700  0.09540000  1
  C  C26  1  0.47832700  0.47832700  0.84423100  1
  C  C27  1  0.16854700  0.66530700  0.09540000  1
