# generated using pymatgen
data_Cu12Ni3C2
_symmetry_space_group_name_H-M   'P 1'
_cell_length_a   9.20329900
_cell_length_b   9.35342900
_cell_length_c   25.75542100
_cell_angle_alpha   90.00000000
_cell_angle_beta   90.00000000
_cell_angle_gamma   90.00000000
_symmetry_Int_Tables_number   1
_chemical_formula_structural   Cu12Ni3C2
_chemical_formula_sum   'Cu96 Ni24 C16'
_cell_volume   2217.08854959
_cell_formula_units_Z   8
loop_
 _symmetry_equiv_pos_site_id
 _symmetry_equiv_pos_as_xyz
  1  'x, y, z'
loop_
 _atom_site_type_symbol
 _atom_site_label
 _atom_site_symmetry_multiplicity
 _atom_site_fract_x
 _atom_site_fract_y
 _atom_site_fract_z
 _atom_site_occupancy
  C  C0  1  0.99987700  0.39454600  0.06509300  1
  C  C1  1  0.99987700  0.10545400  0.56509300  1
  C  C2  1  0.99470700  0.79994900  0.18010300  1
  C  C3  1  0.99470700  0.70005100  0.68010300  1
  C  C4  1  0.50529300  0.29994900  0.18010300  1
  C  C5  1  0.50529300  0.20005100  0.68010300  1
  C  C6  1  0.50012300  0.60545400  0.56509300  1
  C  C7  1  0.50012300  0.89454600  0.06509300  1
  C  C8  1  0.49987700  0.39454600  0.43490700  1
  C  C9  1  0.49987700  0.10545400  0.93490700  1
  C  C10  1  0.49470700  0.70005100  0.81989700  1
  C  C11  1  0.49470700  0.79994900  0.31989700  1
  C  C12  1  0.00529300  0.29994900  0.31989700  1
  C  C13  1  0.00529300  0.20005100  0.81989700  1
  C  C14  1  0.00012300  0.89454600  0.43490700  1
  C  C15  1  0.00012300  0.60545400  0.93490700  1
  Ni  Ni16  1  0.14538300  0.94663300  0.29727800  1
  Ni  Ni17  1  0.14538300  0.55336700  0.79727800  1
  Ni  Ni18  1  0.14833600  0.25885700  0.44968900  1
  Ni  Ni19  1  0.14833600  0.24114300  0.94968900  1
  Ni  Ni20  1  0.19303900  0.08880700  0.11587900  1
  Ni  Ni21  1  0.19303900  0.41119300  0.61587900  1
  Ni  Ni22  1  0.30696100  0.58880700  0.11587900  1
  Ni  Ni23  1  0.30696100  0.91119300  0.61587900  1
  Ni  Ni24  1  0.35166400  0.75885700  0.44968900  1
  Ni  Ni25  1  0.35166400  0.74114300  0.94968900  1
  Ni  Ni26  1  0.35461700  0.44663300  0.29727800  1
  Ni  Ni27  1  0.35461700  0.05336700  0.79727800  1
  Ni  Ni28  1  0.64538300  0.55336700  0.70272200  1
  Ni  Ni29  1  0.64538300  0.94663300  0.20272200  1
  Ni  Ni30  1  0.64833600  0.25885700  0.05031100  1
  Ni  Ni31  1  0.64833600  0.24114300  0.55031100  1
  Ni  Ni32  1  0.69303900  0.08880700  0.38412100  1
  Ni  Ni33  1  0.69303900  0.41119300  0.88412100  1
  Ni  Ni34  1  0.80696100  0.58880700  0.38412100  1
  Ni  Ni35  1  0.80696100  0.91119300  0.88412100  1
  Ni  Ni36  1  0.85166400  0.75885700  0.05031100  1
  Ni  Ni37  1  0.85166400  0.74114300  0.55031100  1
  Ni  Ni38  1  0.85461700  0.44663300  0.20272200  1
  Ni  Ni39  1  0.85461700  0.05336700  0.70272200  1
  Cu  Cu40  1  0.06630400  0.38433800  0.46303100  1
  Cu  Cu41  1  0.06630400  0.11566200  0.96303100  1
  Cu  Cu42  1  0.08542700  0.08420700  0.27780000  1
  Cu  Cu43  1  0.08542700  0.41579300  0.77780000  1
  Cu  Cu44  1  0.08474500  0.12373900  0.47750700  1
  Cu  Cu45  1  0.08474500  0.37626100  0.97750700  1
  Cu  Cu46  1  0.09293200  0.91776800  0.35077100  1
  Cu  Cu47  1  0.09293200  0.58223200  0.85077100  1
  Cu  Cu48  1  0.09603400  0.18119600  0.08379800  1
  Cu  Cu49  1  0.09603400  0.31880400  0.58379800  1
  Cu  Cu50  1  0.09909300  0.82633800  0.26303800  1
  Cu  Cu51  1  0.09909300  0.67366200  0.76303800  1
  Cu  Cu52  1  0.10185400  0.01544300  0.15540900  1
  Cu  Cu53  1  0.10185400  0.48455700  0.65540900  1
  Cu  Cu54  1  0.14470100  0.22167600  0.39283300  1
  Cu  Cu55  1  0.14470100  0.27832400  0.89283300  1
  Cu  Cu56  1  0.19215500  0.45573800  0.29703100  1
  Cu  Cu57  1  0.19215500  0.04426200  0.79703100  1
  Cu  Cu58  1  0.19562900  0.67645300  0.14263000  1
  Cu  Cu59  1  0.19562900  0.82354700  0.64263000  1
  Cu  Cu60  1  0.19582100  0.76382100  0.46665900  1
  Cu  Cu61  1  0.19582100  0.73617900  0.96665900  1
  Cu  Cu62  1  0.23793900  0.01689300  0.58064000  1
  Cu  Cu63  1  0.23793900  0.48310700  0.08064000  1
  Cu  Cu64  1  0.26206100  0.51689300  0.58064000  1
  Cu  Cu65  1  0.26206100  0.98310700  0.08064000  1
  Cu  Cu66  1  0.30417900  0.23617900  0.96665900  1
  Cu  Cu67  1  0.30417900  0.26382100  0.46665900  1
  Cu  Cu68  1  0.30437100  0.17645300  0.14263000  1
  Cu  Cu69  1  0.30437100  0.32354700  0.64263000  1
  Cu  Cu70  1  0.30784500  0.95573800  0.29703100  1
  Cu  Cu71  1  0.30784500  0.54426200  0.79703100  1
  Cu  Cu72  1  0.35529900  0.72167600  0.39283300  1
  Cu  Cu73  1  0.35529900  0.77832400  0.89283300  1
  Cu  Cu74  1  0.39814600  0.98455700  0.65540900  1
  Cu  Cu75  1  0.39814600  0.51544300  0.15540900  1
  Cu  Cu76  1  0.40090700  0.32633800  0.26303800  1
  Cu  Cu77  1  0.40090700  0.17366200  0.76303800  1
  Cu  Cu78  1  0.40396600  0.68119600  0.08379800  1
  Cu  Cu79  1  0.40396600  0.81880400  0.58379800  1
  Cu  Cu80  1  0.40706800  0.08223200  0.85077100  1
  Cu  Cu81  1  0.40706800  0.41776800  0.35077100  1
  Cu  Cu82  1  0.41525500  0.87626100  0.97750700  1
  Cu  Cu83  1  0.41525500  0.62373900  0.47750700  1
  Cu  Cu84  1  0.41457300  0.58420700  0.27780000  1
  Cu  Cu85  1  0.41457300  0.91579300  0.77780000  1
  Cu  Cu86  1  0.43369600  0.61566200  0.96303100  1
  Cu  Cu87  1  0.43369600  0.88433800  0.46303100  1
  Cu  Cu88  1  0.56630400  0.38433800  0.03696900  1
  Cu  Cu89  1  0.56630400  0.11566200  0.53696900  1
  Cu  Cu90  1  0.58542700  0.08420700  0.22220000  1
  Cu  Cu91  1  0.58542700  0.41579300  0.72220000  1
  Cu  Cu92  1  0.58474500  0.12373900  0.02249300  1
  Cu  Cu93  1  0.58474500  0.37626100  0.52249300  1
  Cu  Cu94  1  0.59293200  0.58223200  0.64922900  1
  Cu  Cu95  1  0.59293200  0.91776800  0.14922900  1
  Cu  Cu96  1  0.59603400  0.18119600  0.41620200  1
  Cu  Cu97  1  0.59603400  0.31880400  0.91620200  1
  Cu  Cu98  1  0.59909300  0.82633800  0.23696200  1
  Cu  Cu99  1  0.59909300  0.67366200  0.73696200  1
  Cu  Cu100  1  0.60185400  0.01544300  0.34459100  1
  Cu  Cu101  1  0.60185400  0.48455700  0.84459100  1
  Cu  Cu102  1  0.64470100  0.22167600  0.10716700  1
  Cu  Cu103  1  0.64470100  0.27832400  0.60716700  1
  Cu  Cu104  1  0.69215500  0.45573800  0.20296900  1
  Cu  Cu105  1  0.69215500  0.04426200  0.70296900  1
  Cu  Cu106  1  0.69562900  0.67645300  0.35737000  1
  Cu  Cu107  1  0.69562900  0.82354700  0.85737000  1
  Cu  Cu108  1  0.69582100  0.76382100  0.03334100  1
  Cu  Cu109  1  0.69582100  0.73617900  0.53334100  1
  Cu  Cu110  1  0.73793900  0.48310700  0.41936000  1
  Cu  Cu111  1  0.73793900  0.01689300  0.91936000  1
  Cu  Cu112  1  0.76206100  0.98310700  0.41936000  1
  Cu  Cu113  1  0.76206100  0.51689300  0.91936000  1
  Cu  Cu114  1  0.80417900  0.26382100  0.03334100  1
  Cu  Cu115  1  0.80417900  0.23617900  0.53334100  1
  Cu  Cu116  1  0.80437100  0.17645300  0.35737000  1
  Cu  Cu117  1  0.80437100  0.32354700  0.85737000  1
  Cu  Cu118  1  0.80784500  0.54426200  0.70296900  1
  Cu  Cu119  1  0.80784500  0.95573800  0.20296900  1
  Cu  Cu120  1  0.85529900  0.72167600  0.10716700  1
  Cu  Cu121  1  0.85529900  0.77832400  0.60716700  1
  Cu  Cu122  1  0.89814600  0.51544300  0.34459100  1
  Cu  Cu123  1  0.89814600  0.98455700  0.84459100  1
  Cu  Cu124  1  0.90090700  0.32633800  0.23696200  1
  Cu  Cu125  1  0.90090700  0.17366200  0.73696200  1
  Cu  Cu126  1  0.90396600  0.68119600  0.41620200  1
  Cu  Cu127  1  0.90396600  0.81880400  0.91620200  1
  Cu  Cu128  1  0.90706800  0.41776800  0.14922900  1
  Cu  Cu129  1  0.90706800  0.08223200  0.64922900  1
  Cu  Cu130  1  0.91525500  0.62373900  0.02249300  1
  Cu  Cu131  1  0.91525500  0.87626100  0.52249300  1
  Cu  Cu132  1  0.91457300  0.58420700  0.22220000  1
  Cu  Cu133  1  0.91457300  0.91579300  0.72220000  1
  Cu  Cu134  1  0.93369600  0.61566200  0.53696900  1
  Cu  Cu135  1  0.93369600  0.88433800  0.03696900  1
