# generated using pymatgen
data_Cu3Ni5
_symmetry_space_group_name_H-M   'P 1'
_cell_length_a   7.24790500
_cell_length_b   8.27680700
_cell_length_c   13.87375100
_cell_angle_alpha   90.00000000
_cell_angle_beta   90.00000000
_cell_angle_gamma   90.00000000
_symmetry_Int_Tables_number   1
_chemical_formula_structural   Cu3Ni5
_chemical_formula_sum   'Cu12 Ni20'
_cell_volume   832.27953600
_cell_formula_units_Z   4
loop_
 _symmetry_equiv_pos_site_id
 _symmetry_equiv_pos_as_xyz
  1  'x, y, z'
loop_
 _atom_site_type_symbol
 _atom_site_label
 _atom_site_symmetry_multiplicity
 _atom_site_fract_x
 _atom_site_fract_y
 _atom_site_fract_z
 _atom_site_occupancy
  Ni  Ni0  1  0.84885100  0.55181800  0.12772600  1
  Ni  Ni1  1  0.65114900  0.05181800  0.37227400  1
  Ni  Ni2  1  0.15114900  0.44818200  0.62772600  1
  Ni  Ni3  1  0.34885100  0.94818200  0.87227400  1
  Ni  Ni4  1  0.15114900  0.44818200  0.87227400  1
  Ni  Ni5  1  0.34885100  0.94818200  0.62772600  1
  Ni  Ni6  1  0.84885100  0.55181800  0.37227400  1
  Ni  Ni7  1  0.65114900  0.05181800  0.12772600  1
  Ni  Ni8  1  0.73922100  0.66384000  0.25000000  1
  Ni  Ni9  1  0.76077900  0.16384000  0.25000000  1
  Ni  Ni10  1  0.26077900  0.33616000  0.75000000  1
  Ni  Ni11  1  0.23922100  0.83616000  0.75000000  1
  Ni  Ni12  1  0.20930500  0.73082700  0.13855700  1
  Ni  Ni13  1  0.29069500  0.23082700  0.36144300  1
  Ni  Ni14  1  0.79069500  0.26917300  0.63855700  1
  Ni  Ni15  1  0.70930500  0.76917300  0.86144300  1
  Ni  Ni16  1  0.79069500  0.26917300  0.86144300  1
  Ni  Ni17  1  0.70930500  0.76917300  0.63855700  1
  Ni  Ni18  1  0.20930500  0.73082700  0.36144300  1
  Ni  Ni19  1  0.29069500  0.23082700  0.13855700  1
  Cu  Cu20  1  0.23647400  0.76626500  0.25000000  1
  Cu  Cu21  1  0.26352600  0.26626500  0.25000000  1
  Cu  Cu22  1  0.76352600  0.23373500  0.75000000  1
  Cu  Cu23  1  0.73647400  0.73373500  0.75000000  1
  Cu  Cu24  1  0.03863800  0.63750100  0.09382500  1
  Cu  Cu25  1  0.46136200  0.13750100  0.40617500  1
  Cu  Cu26  1  0.96136200  0.36249900  0.59382500  1
  Cu  Cu27  1  0.53863800  0.86249900  0.90617500  1
  Cu  Cu28  1  0.96136200  0.36249900  0.90617500  1
  Cu  Cu29  1  0.53863800  0.86249900  0.59382500  1
  Cu  Cu30  1  0.03863800  0.63750100  0.40617500  1
  Cu  Cu31  1  0.46136200  0.13750100  0.09382500  1
