# generated using pymatgen
data_Cu2Ni4C3
_symmetry_space_group_name_H-M   'P 1'
_cell_length_a   10.41153077
_cell_length_b   10.41153077
_cell_length_c   3.08018300
_cell_angle_alpha   90.00000000
_cell_angle_beta   90.00000000
_cell_angle_gamma   143.24012703
_symmetry_Int_Tables_number   1
_chemical_formula_structural   Cu2Ni4C3
_chemical_formula_sum   'Cu4 Ni8 C6'
_cell_volume   199.82174755
_cell_formula_units_Z   2
loop_
 _symmetry_equiv_pos_site_id
 _symmetry_equiv_pos_as_xyz
  1  'x, y, z'
loop_
 _atom_site_type_symbol
 _atom_site_label
 _atom_site_symmetry_multiplicity
 _atom_site_fract_x
 _atom_site_fract_y
 _atom_site_fract_z
 _atom_site_occupancy
  C  C0  1  0.83950500  0.16049500  0.00000000  1
  C  C1  1  0.00000000  0.00000000  0.50000000  1
  C  C2  1  0.34025000  0.65975000  0.50000000  1
  C  C3  1  0.50000000  0.50000000  0.00000000  1
  C  C4  1  0.16049500  0.83950500  0.00000000  1
  C  C5  1  0.65975000  0.34025000  0.50000000  1
  Ni  Ni6  1  0.90301400  0.09698600  0.50000000  1
  Ni  Ni7  1  0.14042600  0.47690100  0.00000000  1
  Ni  Ni8  1  0.52309900  0.85957400  0.00000000  1
  Ni  Ni9  1  0.85957400  0.52309900  0.00000000  1
  Ni  Ni10  1  0.43442100  0.56557900  0.50000000  1
  Ni  Ni11  1  0.09698600  0.90301400  0.50000000  1
  Ni  Ni12  1  0.56557900  0.43442100  0.50000000  1
  Ni  Ni13  1  0.47690100  0.14042600  0.00000000  1
  Cu  Cu14  1  0.19956100  0.19956100  0.00000000  1
  Cu  Cu15  1  0.23302200  0.76697800  0.50000000  1
  Cu  Cu16  1  0.80043900  0.80043900  0.00000000  1
  Cu  Cu17  1  0.76697800  0.23302200  0.50000000  1
