# generated using pymatgen
data_Cu(NiC8)3
_symmetry_space_group_name_H-M   'P 1'
_cell_length_a   6.05939000
_cell_length_b   4.74765300
_cell_length_c   10.43804489
_cell_angle_alpha   89.84360353
_cell_angle_beta   90.00000000
_cell_angle_gamma   90.00000000
_symmetry_Int_Tables_number   1
_chemical_formula_structural   Cu(NiC8)3
_chemical_formula_sum   'Cu1 Ni3 C24'
_cell_volume   300.27931565
_cell_formula_units_Z   1
loop_
 _symmetry_equiv_pos_site_id
 _symmetry_equiv_pos_as_xyz
  1  'x, y, z'
loop_
 _atom_site_type_symbol
 _atom_site_label
 _atom_site_symmetry_multiplicity
 _atom_site_fract_x
 _atom_site_fract_y
 _atom_site_fract_z
 _atom_site_occupancy
  C  C0  1  0.25170100  0.99856000  0.00208800  1
  C  C1  1  0.74829900  0.99856000  0.00208800  1
  C  C2  1  0.74991100  0.50004200  0.49918300  1
  C  C3  1  0.25008900  0.50004200  0.49918300  1
  Ni  Ni4  1  0.50000000  0.51492800  0.77486500  1
  Ni  Ni5  1  0.00000000  0.48292600  0.22520500  1
  Ni  Ni6  1  0.00000000  0.01680500  0.72388600  1
  Cu  Cu7  1  0.50000000  0.98813900  0.27493900  1
  C  C8  1  0.00000000  0.91820300  0.40645100  1
  C  C9  1  0.00000000  0.58550100  0.90764300  1
  C  C10  1  0.50000000  0.41140600  0.09450400  1
  C  C11  1  0.50000000  0.08449700  0.59061800  1
  C  C12  1  0.00000000  0.79355700  0.54380200  1
  C  C13  1  0.20395000  0.78339500  0.33540300  1
  C  C14  1  0.79605000  0.78339500  0.33540300  1
  C  C15  1  0.50000000  0.76173700  0.59648500  1
  C  C16  1  0.50000000  0.73413000  0.09839000  1
  C  C17  1  0.20353200  0.72238000  0.83793400  1
  C  C18  1  0.79646800  0.72238000  0.83793400  1
  C  C19  1  0.00000000  0.70630500  0.04601100  1
  C  C20  1  0.50000000  0.29284800  0.95605200  1
  C  C21  1  0.70394200  0.27272000  0.16502000  1
  C  C22  1  0.29605800  0.27272000  0.16502000  1
  C  C23  1  0.00000000  0.26298000  0.90369100  1
  C  C24  1  0.00000000  0.24184000  0.40398300  1
  C  C25  1  0.70278600  0.22230600  0.66101800  1
  C  C26  1  0.29721400  0.22230600  0.66101800  1
  C  C27  1  0.50000000  0.20539600  0.45218200  1
