# generated using pymatgen
data_CuNiC18
_symmetry_space_group_name_H-M   'P 1'
_cell_length_a   9.88910246
_cell_length_b   9.88910246
_cell_length_c   9.80683032
_cell_angle_alpha   87.05460967
_cell_angle_beta   87.05460967
_cell_angle_gamma   84.54851838
_symmetry_Int_Tables_number   1
_chemical_formula_structural   CuNiC18
_chemical_formula_sum   'Cu4 Ni4 C72'
_cell_volume   952.40994058
_cell_formula_units_Z   4
loop_
 _symmetry_equiv_pos_site_id
 _symmetry_equiv_pos_as_xyz
  1  'x, y, z'
loop_
 _atom_site_type_symbol
 _atom_site_label
 _atom_site_symmetry_multiplicity
 _atom_site_fract_x
 _atom_site_fract_y
 _atom_site_fract_z
 _atom_site_occupancy
  C  C0  1  0.01364400  0.48727700  0.74972300  1
  C  C1  1  0.98375000  0.74194500  0.61604600  1
  C  C2  1  0.22673600  0.43299400  0.53916900  1
  C  C3  1  0.22250600  0.26565400  0.82345300  1
  C  C4  1  0.25805500  0.01625000  0.38395400  1
  C  C5  1  0.37861500  0.25301800  0.17736200  1
  C  C6  1  0.51272300  0.98635600  0.25027700  1
  C  C7  1  0.56700600  0.77326400  0.46083100  1
  C  C8  1  0.67989400  0.08669100  0.01753300  1
  C  C9  1  0.73434600  0.77749400  0.17654700  1
  C  C10  1  0.74698200  0.62138500  0.82263800  1
  C  C11  1  0.91330900  0.32010600  0.98246700  1
  Ni  Ni12  1  0.46967400  0.53032600  0.00000000  1
  Ni  Ni13  1  0.73720400  0.02568400  0.72306100  1
  Ni  Ni14  1  0.75675900  0.24324100  0.50000000  1
  Ni  Ni15  1  0.97431600  0.26279600  0.27693900  1
  Cu  Cu16  1  0.02992600  0.75112900  0.21683800  1
  Cu  Cu17  1  0.24584900  0.75415100  0.00000000  1
  Cu  Cu18  1  0.24887100  0.97007400  0.78316200  1
  Cu  Cu19  1  0.53418200  0.46581800  0.50000000  1
  C  C20  1  0.05490100  0.18435800  0.59186200  1
  C  C21  1  0.17444000  0.05580800  0.09907400  1
  C  C22  1  0.16038500  0.45156400  0.06705100  1
  C  C23  1  0.31842100  0.65968100  0.69769600  1
  C  C24  1  0.34031900  0.68157900  0.30230400  1
  C  C25  1  0.44413300  0.15861700  0.57811600  1
  C  C26  1  0.54843600  0.83961500  0.93294900  1
  C  C27  1  0.65160300  0.31599200  0.20199200  1
  C  C28  1  0.68400800  0.34839700  0.79800800  1
  C  C29  1  0.84138300  0.55586700  0.42188400  1
  C  C30  1  0.81564200  0.94509900  0.40813800  1
  C  C31  1  0.94419200  0.82556000  0.90092600  1
  C  C32  1  0.03539100  0.13302300  0.13738100  1
  C  C33  1  0.09091700  0.17589800  0.43644600  1
  C  C34  1  0.11161000  0.39101400  0.20530900  1
  C  C35  1  0.11350400  0.04910900  0.66337000  1
  C  C36  1  0.10713800  0.30885800  0.65351000  1
  C  C37  1  0.12520400  0.61211900  0.07107200  1
  C  C38  1  0.09467100  0.40077100  0.94250400  1
  C  C39  1  0.10229500  0.83985100  0.87403200  1
  C  C40  1  0.16014900  0.89770500  0.12596800  1
  C  C41  1  0.18278900  0.68848600  0.32876100  1
  C  C42  1  0.20370400  0.09037700  0.94388000  1
  C  C43  1  0.19433600  0.59788300  0.64867800  1
  C  C44  1  0.28972100  0.08838600  0.18642100  1
  C  C45  1  0.31869200  0.41305800  0.05639100  1
  C  C46  1  0.31151400  0.81721100  0.67123900  1
  C  C47  1  0.32357300  0.62787900  0.85910400  1
  C  C48  1  0.36759100  0.11859400  0.71444700  1
  C  C49  1  0.40715500  0.08934300  0.45296100  1
  C  C50  1  0.37212100  0.67642700  0.14089600  1
  C  C51  1  0.39749600  0.54428400  0.36782700  1
  C  C52  1  0.41342300  0.31849600  0.55947900  1
  C  C53  1  0.40211700  0.80566400  0.35132200  1
  C  C54  1  0.38788100  0.87479600  0.92892800  1
  C  C55  1  0.45571600  0.60250400  0.63217300  1
  C  C56  1  0.57662000  0.19588600  0.16001300  1
  C  C57  1  0.54577600  0.40632200  0.85505700  1
  C  C58  1  0.59367800  0.45422400  0.14494300  1
  C  C59  1  0.60276600  0.12214100  0.59634800  1
  C  C60  1  0.62832500  0.32409000  0.36487200  1
  C  C61  1  0.59922900  0.90532900  0.05749600  1
  C  C62  1  0.58694200  0.68130800  0.94360900  1
  C  C63  1  0.60898600  0.88839000  0.79469100  1
  C  C64  1  0.67591000  0.37167500  0.63512800  1
  C  C65  1  0.70557400  0.19457000  0.84192700  1
  C  C66  1  0.68150400  0.58657700  0.44052100  1
  C  C67  1  0.69114200  0.89286200  0.34649000  1
  C  C68  1  0.80543000  0.29442600  0.15807300  1
  C  C69  1  0.81579300  0.10303700  0.37691600  1
  C  C70  1  0.80411400  0.42338000  0.83998700  1
  C  C71  1  0.82410200  0.90908300  0.56355400  1
  C  C72  1  0.87785900  0.39723400  0.40365200  1
  C  C73  1  0.89696300  0.18420700  0.62308400  1
  C  C74  1  0.88140600  0.63240900  0.28555300  1
  C  C75  1  0.90962300  0.79629600  0.05612000  1
  C  C76  1  0.91065700  0.59284500  0.54703900  1
  C  C77  1  0.86697700  0.96460900  0.86261900  1
  C  C78  1  0.91161400  0.71027900  0.81357900  1
  C  C79  1  0.95089100  0.88649600  0.33663000  1
