# generated using pymatgen
data_Cu3Ni13C80
_symmetry_space_group_name_H-M   'P 1'
_cell_length_a   4.99965500
_cell_length_b   8.67740719
_cell_length_c   19.46287182
_cell_angle_alpha   98.24454675
_cell_angle_beta   94.78860529
_cell_angle_gamma   89.75367923
_symmetry_Int_Tables_number   1
_chemical_formula_structural   Cu3Ni13C80
_chemical_formula_sum   'Cu3 Ni13 C80'
_cell_volume   832.70938591
_cell_formula_units_Z   1
loop_
 _symmetry_equiv_pos_site_id
 _symmetry_equiv_pos_as_xyz
  1  'x, y, z'
loop_
 _atom_site_type_symbol
 _atom_site_label
 _atom_site_symmetry_multiplicity
 _atom_site_fract_x
 _atom_site_fract_y
 _atom_site_fract_z
 _atom_site_occupancy
  C  C0  1  0.99158500  0.16844800  0.24944300  1
  C  C1  1  0.87548600  0.37457900  0.37512200  1
  C  C2  1  0.74971000  0.25003600  0.00007300  1
  C  C3  1  0.74574700  0.92039800  0.00054000  1
  C  C4  1  0.99147500  0.16825900  0.75017700  1
  C  C5  1  0.75554200  0.57977400  0.49993100  1
  C  C6  1  0.87463300  0.37464800  0.87481800  1
  C  C7  1  0.75135900  0.25026300  0.49996100  1
  C  C8  1  0.74480100  0.92055800  0.50088400  1
  C  C9  1  0.62476400  0.12508800  0.12501600  1
  C  C10  1  0.75615600  0.57988800  0.00011100  1
  C  C11  1  0.50711500  0.33158900  0.25043300  1
  C  C12  1  0.62713400  0.12443300  0.62483100  1
  C  C13  1  0.50033000  0.00027300  0.24996700  1
  C  C14  1  0.49398100  0.66845900  0.24990700  1
  C  C15  1  0.50867800  0.33433800  0.75057600  1
  C  C16  1  0.37699600  0.87430700  0.37485100  1
  C  C17  1  0.50014200  0.00006800  0.75004700  1
  C  C18  1  0.25006400  0.75017300  0.00007700  1
  C  C19  1  0.49021700  0.66561000  0.74922700  1
  C  C20  1  0.24497200  0.41999100  0.00019600  1
  C  C21  1  0.37285200  0.87560400  0.87518400  1
  C  C22  1  0.25506700  0.08083100  0.49949100  1
  C  C23  1  0.24972600  0.74967000  0.50002300  1
  C  C24  1  0.12488200  0.62504700  0.12502700  1
  C  C25  1  0.24229900  0.41923900  0.49964600  1
  C  C26  1  0.00613500  0.83138500  0.24995100  1
  C  C27  1  0.25411800  0.07967600  0.99948500  1
  C  C28  1  0.12521400  0.62445300  0.62513100  1
  C  C29  1  0.00014900  0.49986800  0.24993200  1
  C  C30  1  0.00874900  0.83160400  0.74992600  1
  C  C31  1  0.00078400  0.50010500  0.74987900  1
  Ni  Ni32  1  0.87281200  0.70715500  0.37436500  1
  Ni  Ni33  1  0.87701400  0.04278200  0.87572100  1
  Ni  Ni34  1  0.62570000  0.79141100  0.12502000  1
  Ni  Ni35  1  0.62458500  0.45845000  0.12500400  1
  Ni  Ni36  1  0.62509000  0.79152600  0.62510600  1
  Ni  Ni37  1  0.62614100  0.46015300  0.62569600  1
  Ni  Ni38  1  0.37490100  0.54165000  0.37500100  1
  Ni  Ni39  1  0.37548100  0.21014500  0.37557900  1
  Ni  Ni40  1  0.37348000  0.54002800  0.87434400  1
  Ni  Ni41  1  0.37492700  0.20845300  0.87495700  1
  Ni  Ni42  1  0.12462700  0.95848600  0.12495500  1
  Ni  Ni43  1  0.12578100  0.29142800  0.12495000  1
  Ni  Ni44  1  0.12285300  0.95707700  0.62435600  1
  Cu  Cu45  1  0.88091700  0.04023800  0.37491400  1
  Cu  Cu46  1  0.86816500  0.70902500  0.87513700  1
  Cu  Cu47  1  0.13198100  0.29016200  0.62492700  1
  C  C48  1  0.96359200  0.10697700  0.06909400  1
  C  C49  1  0.92837900  0.78520000  0.06899700  1
  C  C50  1  0.92756000  0.42747600  0.06795900  1
  C  C51  1  0.96190700  0.10269900  0.56817500  1
  C  C52  1  0.82183800  0.96474100  0.18099000  1
  C  C53  1  0.82270400  0.32249400  0.18196000  1
  C  C54  1  0.92830200  0.78429500  0.56909400  1
  C  C55  1  0.92602100  0.42652300  0.56808600  1
  C  C56  1  0.78649400  0.64293300  0.18084900  1
  C  C57  1  0.71176300  0.85341000  0.31833900  1
  C  C58  1  0.82116600  0.96491500  0.68105200  1
  C  C59  1  0.82201600  0.32327000  0.68197300  1
  C  C60  1  0.67804200  0.53434400  0.31897600  1
  C  C61  1  0.67572400  0.17655500  0.31782100  1
  C  C62  1  0.78766500  0.64413400  0.68114600  1
  C  C63  1  0.71957700  0.85660800  0.81924400  1
  C  C64  1  0.46385700  0.60676000  0.06900600  1
  C  C65  1  0.57089100  0.71478400  0.43094000  1
  C  C66  1  0.57168500  0.07369900  0.43209100  1
  C  C67  1  0.67441900  0.53318400  0.81871200  1
  C  C68  1  0.67715900  0.17751300  0.81800900  1
  C  C69  1  0.42781100  0.92741800  0.06807800  1
  C  C70  1  0.42854500  0.28528800  0.06904300  1
  C  C71  1  0.53732700  0.39405200  0.43104400  1
  C  C72  1  0.46350600  0.60745400  0.56910000  1
  C  C73  1  0.57187600  0.71280400  0.93099100  1
  C  C74  1  0.57255400  0.07244300  0.93192800  1
  C  C75  1  0.32246500  0.82258200  0.18192300  1
  C  C76  1  0.32178100  0.46469700  0.18093400  1
  C  C77  1  0.42751300  0.92768300  0.56806800  1
  C  C78  1  0.42631100  0.28730700  0.56923700  1
  C  C79  1  0.53638300  0.39273000  0.93094500  1
  C  C80  1  0.28613300  0.14309000  0.18090900  1
  C  C81  1  0.21325900  0.35739300  0.31903100  1
  C  C82  1  0.32297000  0.82251200  0.68206000  1
  C  C83  1  0.32618400  0.46725200  0.68155900  1
  C  C84  1  0.17726900  0.67767700  0.31800300  1
  C  C85  1  0.17605300  0.03727800  0.31899000  1
  C  C86  1  0.28154800  0.14336300  0.68085700  1
  C  C87  1  0.21208800  0.35592300  0.81889800  1
  C  C88  1  0.07263500  0.57236500  0.43197000  1
  C  C89  1  0.07586200  0.21712300  0.43160000  1
  C  C90  1  0.17936100  0.67681300  0.81786000  1
  C  C91  1  0.17903300  0.03522600  0.81903500  1
  C  C92  1  0.03204700  0.89315500  0.43082000  1
  C  C93  1  0.07365300  0.57429800  0.93199200  1
  C  C94  1  0.07179800  0.21580200  0.93092800  1
  C  C95  1  0.03795500  0.89692600  0.93178800  1
