# generated using pymatgen
data_Cu2Ni4C21
_symmetry_space_group_name_H-M   'P 1'
_cell_length_a   7.88482400
_cell_length_b   8.08329692
_cell_length_c   9.74204072
_cell_angle_alpha   90.68507635
_cell_angle_beta   111.89786282
_cell_angle_gamma   90.12720440
_symmetry_Int_Tables_number   1
_chemical_formula_structural   Cu2Ni4C21
_chemical_formula_sum   'Cu4 Ni8 C42'
_cell_volume   576.05775224
_cell_formula_units_Z   2
loop_
 _symmetry_equiv_pos_site_id
 _symmetry_equiv_pos_as_xyz
  1  'x, y, z'
loop_
 _atom_site_type_symbol
 _atom_site_label
 _atom_site_symmetry_multiplicity
 _atom_site_fract_x
 _atom_site_fract_y
 _atom_site_fract_z
 _atom_site_occupancy
  C  C0  1  0.65703400  0.63375400  0.27830700  1
  C  C1  1  0.34442800  0.36624200  0.23000700  1
  C  C2  1  0.14915600  0.86829500  0.27161100  1
  C  C3  1  0.85108200  0.13392400  0.72185300  1
  C  C4  1  0.65777100  0.63449400  0.77622700  1
  C  C5  1  0.34381200  0.36828200  0.72792700  1
  C  C6  1  0.99510100  0.49430100  0.24703200  1
  C  C7  1  0.51076500  0.00229800  0.25109400  1
  C  C8  1  0.99972100  0.50533800  0.75005400  1
  C  C9  1  0.49783300  0.99851600  0.75191200  1
  Ni  Ni10  1  0.76856000  0.84937400  0.06881200  1
  Ni  Ni11  1  0.26283100  0.65489700  0.06644100  1
  Ni  Ni12  1  0.73047900  0.34795600  0.43326600  1
  Ni  Ni13  1  0.76842200  0.85220500  0.56878100  1
  Ni  Ni14  1  0.23762700  0.15135700  0.43316200  1
  Ni  Ni15  1  0.26354000  0.65714600  0.56559700  1
  Ni  Ni16  1  0.73161200  0.34830200  0.93186000  1
  Ni  Ni17  1  0.23850000  0.15329800  0.93312600  1
  Cu  Cu18  1  0.48947700  0.51006300  0.00981900  1
  Cu  Cu19  1  0.48914300  0.50950800  0.50925800  1
  Cu  Cu20  1  0.01144400  0.00970700  0.49048100  1
  Cu  Cu21  1  0.01293900  0.00832300  0.99010700  1
  C  C22  1  0.94696400  0.93848500  0.09124000  1
  C  C23  1  0.85209500  0.32864900  0.09607100  1
  C  C24  1  0.80571800  0.68236200  0.14807000  1
  C  C25  1  0.64730000  0.95009700  0.13954900  1
  C  C26  1  0.44848000  0.56028200  0.09563900  1
  C  C27  1  0.35379500  0.17342100  0.10072700  1
  C  C28  1  0.31472000  0.82344300  0.14825000  1
  C  C29  1  0.16427400  0.54550200  0.14300100  1
  C  C30  1  0.83709800  0.45216300  0.35985800  1
  C  C31  1  0.67940000  0.17392000  0.36099300  1
  C  C32  1  0.64318100  0.82929000  0.40059300  1
  C  C33  1  0.55199800  0.44435400  0.40582100  1
  C  C34  1  0.34767300  0.04678000  0.35776700  1
  C  C35  1  0.19229200  0.31807800  0.35606000  1
  C  C36  1  0.93738500  0.95568200  0.59184100  1
  C  C37  1  0.85025600  0.32803500  0.59947400  1
  C  C38  1  0.14973100  0.67435700  0.39914800  1
  C  C39  1  0.06225500  0.04770300  0.40684900  1
  C  C40  1  0.80587900  0.68333000  0.64390800  1
  C  C41  1  0.65056600  0.95353900  0.64288900  1
  C  C42  1  0.44651000  0.55795300  0.59499400  1
  C  C43  1  0.35517600  0.17306800  0.60090300  1
  C  C44  1  0.32094700  0.82676300  0.64085800  1
  C  C45  1  0.16239600  0.54887800  0.63955900  1
  C  C46  1  0.83624700  0.45531400  0.85669600  1
  C  C47  1  0.68726000  0.17620000  0.85167300  1
  C  C48  1  0.64457800  0.82837500  0.90119800  1
  C  C49  1  0.55094500  0.44076900  0.90484100  1
  C  C50  1  0.35491900  0.05154300  0.86260700  1
  C  C51  1  0.19081600  0.31770900  0.85172100  1
  C  C52  1  0.14877700  0.67190000  0.90203000  1
  C  C53  1  0.05463100  0.06212800  0.90685700  1
