# generated using pymatgen
data_Cu2Ni3C16
_symmetry_space_group_name_H-M   'P 1'
_cell_length_a   8.78920302
_cell_length_b   8.78920302
_cell_length_c   6.60020632
_cell_angle_alpha   72.55395873
_cell_angle_beta   72.55395873
_cell_angle_gamma   88.63788400
_symmetry_Int_Tables_number   1
_chemical_formula_structural   Cu2Ni3C16
_chemical_formula_sum   'Cu4 Ni6 C32'
_cell_volume   462.81143670
_cell_formula_units_Z   2
loop_
 _symmetry_equiv_pos_site_id
 _symmetry_equiv_pos_as_xyz
  1  'x, y, z'
loop_
 _atom_site_type_symbol
 _atom_site_label
 _atom_site_symmetry_multiplicity
 _atom_site_fract_x
 _atom_site_fract_y
 _atom_site_fract_z
 _atom_site_occupancy
  C  C0  1  0.98524300  0.01475700  0.25000000  1
  C  C1  1  0.01475700  0.98524300  0.75000000  1
  C  C2  1  0.94600900  0.62603100  0.13685800  1
  C  C3  1  0.62603100  0.94600900  0.63685800  1
  C  C4  1  0.27815600  0.72184400  0.25000000  1
  C  C5  1  0.72184400  0.27815600  0.75000000  1
  C  C6  1  0.37396900  0.05399100  0.36314200  1
  C  C7  1  0.05399100  0.37396900  0.86314200  1
  Ni  Ni8  1  0.67716100  0.89512700  0.10849400  1
  Ni  Ni9  1  0.89512700  0.67716100  0.60849400  1
  Ni  Ni10  1  0.67687800  0.32312200  0.25000000  1
  Ni  Ni11  1  0.32312200  0.67687800  0.75000000  1
  Ni  Ni12  1  0.10487300  0.32283900  0.39150600  1
  Ni  Ni13  1  0.32283900  0.10487300  0.89150600  1
  Cu  Cu14  1  0.62482300  0.62422500  0.18261800  1
  Cu  Cu15  1  0.62422500  0.62482300  0.68261800  1
  Cu  Cu16  1  0.37577500  0.37517700  0.31738200  1
  Cu  Cu17  1  0.37517700  0.37577500  0.81738200  1
  C  C18  1  0.85442200  0.85518000  0.08621900  1
  C  C19  1  0.60476500  0.96339600  0.30352400  1
  C  C20  1  0.85518000  0.85442200  0.58621900  1
  C  C21  1  0.96339600  0.60476500  0.80352400  1
  C  C22  1  0.32387600  0.98081100  0.11295800  1
  C  C23  1  0.57005200  0.74193100  0.14415800  1
  C  C24  1  0.70726200  0.50143600  0.22690300  1
  C  C25  1  0.71980900  0.22066300  0.46002500  1
  C  C26  1  0.98081100  0.32387600  0.61295800  1
  C  C27  1  0.74193100  0.57005200  0.64415800  1
  C  C28  1  0.50143600  0.70726200  0.72690300  1
  C  C29  1  0.77933700  0.28019100  0.03997500  1
  C  C30  1  0.22066300  0.71980900  0.96002500  1
  C  C31  1  0.49856400  0.29273800  0.27309700  1
  C  C32  1  0.25806900  0.42994800  0.35584200  1
  C  C33  1  0.01918900  0.67612400  0.38704200  1
  C  C34  1  0.28019100  0.77933700  0.53997500  1
  C  C35  1  0.29273800  0.49856400  0.77309700  1
  C  C36  1  0.42994800  0.25806900  0.85584200  1
  C  C37  1  0.67612400  0.01918900  0.88704200  1
  C  C38  1  0.03660400  0.39523500  0.19647600  1
  C  C39  1  0.14482000  0.14557800  0.41378100  1
  C  C40  1  0.39523500  0.03660400  0.69647600  1
  C  C41  1  0.14557800  0.14482000  0.91378100  1
