# generated using pymatgen
data_Cu2Ni2C11
_symmetry_space_group_name_H-M   'P 1'
_cell_length_a   6.33896800
_cell_length_b   5.07078700
_cell_length_c   10.78668621
_cell_angle_alpha   89.91379618
_cell_angle_beta   90.00000000
_cell_angle_gamma   90.00000000
_symmetry_Int_Tables_number   1
_chemical_formula_structural   Cu2Ni2C11
_chemical_formula_sum   'Cu4 Ni4 C22'
_cell_volume   346.72206547
_cell_formula_units_Z   2
loop_
 _symmetry_equiv_pos_site_id
 _symmetry_equiv_pos_as_xyz
  1  'x, y, z'
loop_
 _atom_site_type_symbol
 _atom_site_label
 _atom_site_symmetry_multiplicity
 _atom_site_fract_x
 _atom_site_fract_y
 _atom_site_fract_z
 _atom_site_occupancy
  C  C0  1  0.23282500  0.23808800  0.83073200  1
  C  C1  1  0.76717500  0.23808800  0.33073200  1
  C  C2  1  0.75351200  0.74092700  0.66935700  1
  C  C3  1  0.50069800  0.74444000  0.90996000  1
  C  C4  1  0.49930200  0.74444000  0.40996000  1
  C  C5  1  0.24648800  0.74092700  0.16935700  1
  Ni  Ni6  1  0.01020500  0.74006800  0.41673800  1
  Ni  Ni7  1  0.98979500  0.74006800  0.91673800  1
  Ni  Ni8  1  0.51676100  0.23741700  0.08782900  1
  Ni  Ni9  1  0.48323900  0.23741700  0.58782900  1
  Cu  Cu10  1  0.24208200  0.73822500  0.66753000  1
  Cu  Cu11  1  0.75791800  0.73822500  0.16753000  1
  Cu  Cu12  1  0.74260200  0.23578400  0.83254400  1
  Cu  Cu13  1  0.25739800  0.23578400  0.33254400  1
  C  C14  1  0.27205100  0.41340100  0.67017600  1
  C  C15  1  0.24322900  0.84402400  0.81265100  1
  C  C16  1  0.04064900  0.35904800  0.38668500  1
  C  C17  1  0.02583600  0.80878000  0.59417200  1
  C  C18  1  0.97416400  0.80878000  0.09417200  1
  C  C19  1  0.95935100  0.35904800  0.88668500  1
  C  C20  1  0.75677100  0.84402400  0.31265100  1
  C  C21  1  0.72794900  0.41340100  0.17017600  1
  C  C22  1  0.74449900  0.91215700  0.83281400  1
  C  C23  1  0.70395900  0.34487300  0.68868100  1
  C  C24  1  0.54170700  0.86168400  0.09545100  1
  C  C25  1  0.53021400  0.33187800  0.91729600  1
  C  C26  1  0.46978600  0.33187800  0.41729600  1
  C  C27  1  0.45829300  0.86168400  0.59545100  1
  C  C28  1  0.29604100  0.34487300  0.18868100  1
  C  C29  1  0.25550100  0.91215700  0.33281400  1
