# generated using pymatgen
data_CuNiC11
_symmetry_space_group_name_H-M   'P 1'
_cell_length_a   4.97320314
_cell_length_b   6.53118804
_cell_length_c   8.57918553
_cell_angle_alpha   89.98766062
_cell_angle_beta   85.21518371
_cell_angle_gamma   89.99749750
_symmetry_Int_Tables_number   1
_chemical_formula_structural   CuNiC11
_chemical_formula_sum   'Cu2 Ni2 C22'
_cell_volume   277.68874390
_cell_formula_units_Z   2
loop_
 _symmetry_equiv_pos_site_id
 _symmetry_equiv_pos_as_xyz
  1  'x, y, z'
loop_
 _atom_site_type_symbol
 _atom_site_label
 _atom_site_symmetry_multiplicity
 _atom_site_fract_x
 _atom_site_fract_y
 _atom_site_fract_z
 _atom_site_occupancy
  C  C0  1  0.77179200  0.25668700  0.11545400  1
  C  C1  1  0.22819800  0.75674700  0.88460800  1
  C  C2  1  0.23639000  0.47768200  0.30171600  1
  C  C3  1  0.76366900  0.97733600  0.69815500  1
  C  C4  1  0.77358200  0.74337700  0.35938900  1
  C  C5  1  0.22650900  0.24330900  0.64056100  1
  C  C6  1  0.75581800  0.48298700  0.74647200  1
  C  C7  1  0.24451900  0.98323000  0.25358500  1
  Ni  Ni8  1  0.72759000  0.25751800  0.41255400  1
  Ni  Ni9  1  0.27241000  0.75744300  0.58744100  1
  Cu  Cu10  1  0.71370700  0.75523600  0.04186100  1
  Cu  Cu11  1  0.28619300  0.25525800  0.95817800  1
  C  C12  1  0.96609600  0.76425300  0.05878500  1
  C  C13  1  0.03378300  0.26417300  0.94128500  1
  C  C14  1  0.37292500  0.22332300  0.09843300  1
  C  C15  1  0.62709800  0.72295800  0.90163700  1
  C  C16  1  0.53533000  0.77315300  0.16034900  1
  C  C17  1  0.46446800  0.27297400  0.83961400  1
  C  C18  1  0.84157100  0.06685100  0.31837300  1
  C  C19  1  0.15832300  0.56673300  0.68156400  1
  C  C20  1  0.83500100  0.44304400  0.31413800  1
  C  C21  1  0.16503500  0.94292900  0.68586500  1
  C  C22  1  0.17689300  0.75304300  0.41856000  1
  C  C23  1  0.82310500  0.25285900  0.58145500  1
  C  C24  1  0.41460900  0.25352500  0.42410500  1
  C  C25  1  0.58538400  0.75336800  0.57586200  1
