# generated using pymatgen
data_Cu2Ni3C23
_symmetry_space_group_name_H-M   'P 1'
_cell_length_a   5.95293113
_cell_length_b   5.95293113
_cell_length_c   9.62741483
_cell_angle_alpha   89.05173038
_cell_angle_beta   89.05173038
_cell_angle_gamma   59.75969754
_symmetry_Int_Tables_number   1
_chemical_formula_structural   Cu2Ni3C23
_chemical_formula_sum   'Cu2 Ni3 C23'
_cell_volume   294.69053615
_cell_formula_units_Z   1
loop_
 _symmetry_equiv_pos_site_id
 _symmetry_equiv_pos_as_xyz
  1  'x, y, z'
loop_
 _atom_site_type_symbol
 _atom_site_label
 _atom_site_symmetry_multiplicity
 _atom_site_fract_x
 _atom_site_fract_y
 _atom_site_fract_z
 _atom_site_occupancy
  C  C0  1  0.66525900  0.66525900  0.90268700  1
  C  C1  1  0.99994500  0.99994500  0.99275000  1
  C  C2  1  0.00111100  0.00111100  0.48970800  1
  C  C3  1  0.33666200  0.33666200  0.40165700  1
  C  C4  1  0.82967800  0.82967800  0.21510700  1
  C  C5  1  0.65937300  0.16873700  0.71412400  1
  C  C6  1  0.16873700  0.65937300  0.71412400  1
  Ni  Ni7  1  0.83151100  0.34034600  0.21322600  1
  Ni  Ni8  1  0.34034600  0.83151100  0.21322600  1
  Ni  Ni9  1  0.16953200  0.16953200  0.71459700  1
  Cu  Cu10  1  0.66629200  0.66629200  0.48938700  1
  Cu  Cu11  1  0.33145300  0.33145300  0.98814900  1
  C  C12  1  0.83358000  0.32681100  0.59322700  1
  C  C13  1  0.52189900  0.52189900  0.34413100  1
  C  C14  1  0.66889800  0.66889800  0.11155700  1
  C  C15  1  0.99992700  0.99992700  0.30164900  1
  C  C16  1  0.99566500  0.99566500  0.80550800  1
  C  C17  1  0.32681100  0.83358000  0.59322700  1
  C  C18  1  0.96723400  0.52241500  0.34700200  1
  C  C19  1  0.52241500  0.96723400  0.34700200  1
  C  C20  1  0.16137000  0.16137000  0.09215000  1
  C  C21  1  0.83262100  0.83262100  0.59740600  1
  C  C22  1  0.48343700  0.03511600  0.84434800  1
  C  C23  1  0.03511600  0.48343700  0.84434800  1
  C  C24  1  0.33752000  0.33752000  0.60814100  1
  C  C25  1  0.66540800  0.16082600  0.09413200  1
  C  C26  1  0.48097000  0.48097000  0.84241000  1
  C  C27  1  0.16082600  0.66540800  0.09413200  1
