# generated using pymatgen
data_Cu5Ni4C
_symmetry_space_group_name_H-M   'P 1'
_cell_length_a   8.29723700
_cell_length_b   8.49623300
_cell_length_c   10.72805000
_cell_angle_alpha   90.00000000
_cell_angle_beta   90.00000000
_cell_angle_gamma   90.00000000
_symmetry_Int_Tables_number   1
_chemical_formula_structural   Cu5Ni4C
_chemical_formula_sum   'Cu20 Ni16 C4'
_cell_volume   756.27666126
_cell_formula_units_Z   4
loop_
 _symmetry_equiv_pos_site_id
 _symmetry_equiv_pos_as_xyz
  1  'x, y, z'
loop_
 _atom_site_type_symbol
 _atom_site_label
 _atom_site_symmetry_multiplicity
 _atom_site_fract_x
 _atom_site_fract_y
 _atom_site_fract_z
 _atom_site_occupancy
  C  C0  1  0.25000000  0.83768100  0.49490600  1
  C  C1  1  0.25000000  0.33768100  0.00509400  1
  C  C2  1  0.75000000  0.16231900  0.50509400  1
  C  C3  1  0.75000000  0.66231900  0.99490600  1
  Ni  Ni4  1  0.25000000  0.07815200  0.53948600  1
  Ni  Ni5  1  0.25000000  0.57815200  0.96051400  1
  Ni  Ni6  1  0.75000000  0.92184800  0.46051400  1
  Ni  Ni7  1  0.75000000  0.42184800  0.03948600  1
  Ni  Ni8  1  0.25000000  0.25252100  0.40565100  1
  Ni  Ni9  1  0.25000000  0.75252100  0.09434900  1
  Ni  Ni10  1  0.75000000  0.74747900  0.59434900  1
  Ni  Ni11  1  0.75000000  0.24747900  0.90565100  1
  Ni  Ni12  1  0.99024300  0.55090400  0.30696700  1
  Ni  Ni13  1  0.50975700  0.05090400  0.19303300  1
  Ni  Ni14  1  0.49024300  0.44909600  0.69303300  1
  Ni  Ni15  1  0.00975700  0.94909600  0.80696700  1
  Ni  Ni16  1  0.00975700  0.44909600  0.69303300  1
  Ni  Ni17  1  0.49024300  0.94909600  0.80696700  1
  Ni  Ni18  1  0.50975700  0.55090400  0.30696700  1
  Ni  Ni19  1  0.99024300  0.05090400  0.19303300  1
  Cu  Cu20  1  0.25000000  0.86322300  0.36182500  1
  Cu  Cu21  1  0.25000000  0.36322300  0.13817500  1
  Cu  Cu22  1  0.75000000  0.13677700  0.63817500  1
  Cu  Cu23  1  0.75000000  0.63677700  0.86182500  1
  Cu  Cu24  1  0.10081400  0.78797200  0.55363200  1
  Cu  Cu25  1  0.39918600  0.28797200  0.94636800  1
  Cu  Cu26  1  0.60081400  0.21202800  0.44636800  1
  Cu  Cu27  1  0.89918600  0.71202800  0.05363200  1
  Cu  Cu28  1  0.89918600  0.21202800  0.44636800  1
  Cu  Cu29  1  0.60081400  0.71202800  0.05363200  1
  Cu  Cu30  1  0.39918600  0.78797200  0.55363200  1
  Cu  Cu31  1  0.10081400  0.28797200  0.94636800  1
  Cu  Cu32  1  0.25000000  0.13128600  0.63976700  1
  Cu  Cu33  1  0.25000000  0.63128600  0.86023300  1
  Cu  Cu34  1  0.75000000  0.86871400  0.36023300  1
  Cu  Cu35  1  0.75000000  0.36871400  0.13976700  1
  Cu  Cu36  1  0.25000000  0.36691300  0.46130400  1
  Cu  Cu37  1  0.25000000  0.86691300  0.03869600  1
  Cu  Cu38  1  0.75000000  0.63308700  0.53869600  1
  Cu  Cu39  1  0.75000000  0.13308700  0.96130400  1
