# generated using pymatgen
data_Cu3Ni2C21
_symmetry_space_group_name_H-M   'P 1'
_cell_length_a   8.41557700
_cell_length_b   10.19874633
_cell_length_c   11.71566323
_cell_angle_alpha   90.00655718
_cell_angle_beta   110.17837873
_cell_angle_gamma   100.52704423
_symmetry_Int_Tables_number   1
_chemical_formula_structural   Cu3Ni2C21
_chemical_formula_sum   'Cu12 Ni8 C84'
_cell_volume   925.75949277
_cell_formula_units_Z   4
loop_
 _symmetry_equiv_pos_site_id
 _symmetry_equiv_pos_as_xyz
  1  'x, y, z'
loop_
 _atom_site_type_symbol
 _atom_site_label
 _atom_site_symmetry_multiplicity
 _atom_site_fract_x
 _atom_site_fract_y
 _atom_site_fract_z
 _atom_site_occupancy
  C  C0  1  0.14616100  0.87465200  0.93898300  1
  C  C1  1  0.15292000  0.43179300  0.84506400  1
  C  C2  1  0.13098700  0.93431600  0.57569500  1
  C  C3  1  0.14183900  0.26593900  0.81693100  1
  C  C4  1  0.11910700  0.37044300  0.70163100  1
  C  C5  1  0.13736200  0.76792800  0.56260400  1
  C  C6  1  0.03338800  0.17046200  0.53024300  1
  C  C7  1  0.15451400  0.86883500  0.44951600  1
  C  C8  1  0.03722700  0.66677200  0.23458000  1
  C  C9  1  0.97801400  0.34020100  0.28450900  1
  C  C10  1  0.39499000  0.81168800  0.84955400  1
  C  C11  1  0.44519800  0.67236800  0.91451100  1
  C  C12  1  0.13266500  0.93856900  0.07000500  1
  C  C13  1  0.17218400  0.43669300  0.35580300  1
  C  C14  1  0.15551200  0.26995700  0.32785700  1
  C  C15  1  0.50169800  0.99225300  0.73077600  1
  C  C16  1  0.12375800  0.37082400  0.21090800  1
  C  C17  1  0.59281100  0.81623000  0.96148600  1
  C  C18  1  0.15697900  0.77783200  0.06023100  1
  C  C19  1  0.02943700  0.17903600  0.02377400  1
  C  C20  1  0.54730600  0.74153600  0.82164900  1
  C  C21  1  0.50624900  0.50096400  0.77199500  1
  C  C22  1  0.39187200  0.30419100  0.61034700  1
  C  C23  1  0.42023300  0.69022700  0.41764100  1
  C  C24  1  0.43364300  0.16516900  0.56178700  1
  C  C25  1  0.44797700  0.76628400  0.29593700  1
  C  C26  1  0.55202300  0.23371600  0.70406300  1
  C  C27  1  0.56635700  0.83483100  0.43821300  1
  C  C28  1  0.57976700  0.30977300  0.58235900  1
  C  C29  1  0.60812800  0.69580900  0.38965300  1
  C  C30  1  0.49375100  0.49903600  0.22800500  1
  C  C31  1  0.45269400  0.25846400  0.17835100  1
  C  C32  1  0.97056300  0.82096400  0.97622600  1
  C  C33  1  0.84302100  0.22216800  0.93976900  1
  C  C34  1  0.40718900  0.18377000  0.03851400  1
  C  C35  1  0.87624200  0.62917600  0.78909200  1
  C  C36  1  0.49830200  0.00774700  0.26922400  1
  C  C37  1  0.84448800  0.73004300  0.67214300  1
  C  C38  1  0.82781600  0.56330700  0.64419700  1
  C  C39  1  0.86733500  0.06143100  0.92999500  1
  C  C40  1  0.55480200  0.32763200  0.08548900  1
  C  C41  1  0.60501000  0.18831200  0.15044600  1
  C  C42  1  0.02198600  0.65979900  0.71549100  1
  C  C43  1  0.96277300  0.33322800  0.76542000  1
  C  C44  1  0.84548600  0.13116500  0.55048400  1
  C  C45  1  0.96661200  0.82953800  0.46975700  1
  C  C46  1  0.86263800  0.23207200  0.43739600  1
  C  C47  1  0.88089300  0.62955700  0.29836900  1
  C  C48  1  0.85816100  0.73406100  0.18306900  1
  C  C49  1  0.86901300  0.06568400  0.42430500  1
  C  C50  1  0.84708000  0.56820700  0.15493600  1
  C  C51  1  0.85383900  0.12534800  0.06101700  1
  Ni  Ni52  1  0.28219800  0.54588800  0.58816900  1
  Ni  Ni53  1  0.27590100  0.04370400  0.80142500  1
  Ni  Ni54  1  0.26823000  0.53454500  0.07993000  1
  Ni  Ni55  1  0.26934400  0.03485200  0.30309900  1
  Ni  Ni56  1  0.73065600  0.96514800  0.69690100  1
  Ni  Ni57  1  0.73177000  0.46545500  0.92007000  1
  Ni  Ni58  1  0.72409900  0.95629600  0.19857500  1
  Ni  Ni59  1  0.71780200  0.45411200  0.41183100  1
  Cu  Cu60  1  0.09309000  0.35023200  0.78160600  1
  Cu  Cu61  1  0.09795000  0.84970200  0.51538600  1
  Cu  Cu62  1  0.10673900  0.35402800  0.29417000  1
  Cu  Cu63  1  0.49640700  0.76088700  0.88638300  1
  Cu  Cu64  1  0.10188200  0.85337200  0.01162900  1
  Cu  Cu65  1  0.49034800  0.25314300  0.61549000  1
  Cu  Cu66  1  0.50965200  0.74685700  0.38451000  1
  Cu  Cu67  1  0.89811800  0.14662800  0.98837100  1
  Cu  Cu68  1  0.50359300  0.23911300  0.11361700  1
  Cu  Cu69  1  0.89326100  0.64597200  0.70583000  1
  Cu  Cu70  1  0.90205000  0.15029800  0.48461400  1
  Cu  Cu71  1  0.90691000  0.64976800  0.21839400  1
  C  C72  1  0.21176400  0.89790900  0.81022000  1
  C  C73  1  0.24638100  0.57957200  0.95715400  1
  C  C74  1  0.20051000  0.62324500  0.65211600  1
  C  C75  1  0.23994300  0.12532400  0.89190100  1
  C  C76  1  0.20869500  0.39920700  0.58157000  1
  C  C77  1  0.19080600  0.08215900  0.67583600  1
  C  C78  1  0.20747100  0.89065700  0.30566800  1
  C  C79  1  0.25484200  0.59054200  0.46298300  1
  C  C80  1  0.52736000  0.94254600  0.66227700  1
  C  C81  1  0.21292800  0.62307000  0.15245400  1
  C  C82  1  0.53099200  0.45381100  0.85603000  1
  C  C83  1  0.24537500  0.11517800  0.39798900  1
  C  C84  1  0.47373400  0.56727500  0.65938800  1
  C  C85  1  0.46801900  0.06548800  0.82880800  1
  C  C86  1  0.18785900  0.39294100  0.07827600  1
  C  C87  1  0.20000300  0.08347300  0.18076700  1
  C  C88  1  0.79999700  0.91652700  0.81923300  1
  C  C89  1  0.81214100  0.60705900  0.92172400  1
  C  C90  1  0.53198100  0.93451200  0.17119200  1
  C  C91  1  0.52626600  0.43272500  0.34061200  1
  C  C92  1  0.75462500  0.88482200  0.60201100  1
  C  C93  1  0.46900800  0.54618900  0.14397000  1
  C  C94  1  0.78707200  0.37693000  0.84754600  1
  C  C95  1  0.47264000  0.05745400  0.33772300  1
  C  C96  1  0.74515800  0.40945800  0.53701700  1
  C  C97  1  0.79252900  0.10934300  0.69433200  1
  C  C98  1  0.80919400  0.91784100  0.32416400  1
  C  C99  1  0.79130500  0.60079300  0.41843000  1
  C  C100  1  0.76005700  0.87467600  0.10809900  1
  C  C101  1  0.79949000  0.37675500  0.34788400  1
  C  C102  1  0.75361900  0.42042800  0.04284600  1
  C  C103  1  0.78823600  0.10209100  0.18978000  1
