# generated using pymatgen
data_Cu(NiC)3
_symmetry_space_group_name_H-M   'P 1'
_cell_length_a   7.30107485
_cell_length_b   7.30107485
_cell_length_c   7.23968554
_cell_angle_alpha   85.14542654
_cell_angle_beta   85.14542654
_cell_angle_gamma   116.10541032
_symmetry_Int_Tables_number   1
_chemical_formula_structural   Cu(NiC)3
_chemical_formula_sum   'Cu2 Ni6 C6'
_cell_volume   342.08676816
_cell_formula_units_Z   2
loop_
 _symmetry_equiv_pos_site_id
 _symmetry_equiv_pos_as_xyz
  1  'x, y, z'
loop_
 _atom_site_type_symbol
 _atom_site_label
 _atom_site_symmetry_multiplicity
 _atom_site_fract_x
 _atom_site_fract_y
 _atom_site_fract_z
 _atom_site_occupancy
  Ni  Ni0  1  0.79577300  0.20422700  0.50000000  1
  Ni  Ni1  1  0.73911300  0.26088700  0.00000000  1
  Ni  Ni2  1  0.63602200  0.63602200  0.64353500  1
  Ni  Ni3  1  0.36397800  0.36397800  0.35646500  1
  Ni  Ni4  1  0.26088700  0.73911300  0.00000000  1
  Ni  Ni5  1  0.20422700  0.79577300  0.50000000  1
  Cu  Cu6  1  0.82371700  0.82371700  0.14882000  1
  Cu  Cu7  1  0.17628300  0.17628300  0.85118000  1
  C  C8  1  0.83400000  0.55732200  0.26744200  1
  C  C9  1  0.89830200  0.89830200  0.84442200  1
  C  C10  1  0.44267800  0.16600000  0.73255800  1
  C  C11  1  0.55732200  0.83400000  0.26744200  1
  C  C12  1  0.10169800  0.10169800  0.15557800  1
  C  C13  1  0.16600000  0.44267800  0.73255800  1
