# generated using pymatgen
data_Cu8Ni2C5
_symmetry_space_group_name_H-M   'P 1'
_cell_length_a   4.83459000
_cell_length_b   8.00215679
_cell_length_c   10.14961971
_cell_angle_alpha   70.91095679
_cell_angle_beta   87.56990716
_cell_angle_gamma   88.82949514
_symmetry_Int_Tables_number   1
_chemical_formula_structural   Cu8Ni2C5
_chemical_formula_sum   'Cu16 Ni4 C10'
_cell_volume   370.72539088
_cell_formula_units_Z   2
loop_
 _symmetry_equiv_pos_site_id
 _symmetry_equiv_pos_as_xyz
  1  'x, y, z'
loop_
 _atom_site_type_symbol
 _atom_site_label
 _atom_site_symmetry_multiplicity
 _atom_site_fract_x
 _atom_site_fract_y
 _atom_site_fract_z
 _atom_site_occupancy
  C  C0  1  0.51303900  0.70083500  0.89117800  1
  C  C1  1  0.49735100  0.89947500  0.30624600  1
  C  C2  1  0.50264900  0.10052500  0.69375400  1
  C  C3  1  0.48696100  0.29916500  0.10882200  1
  C  C4  1  0.50000000  0.50000000  0.50000000  1
  C  C5  1  0.03242400  0.39154500  0.78737900  1
  C  C6  1  0.97393600  0.80771700  0.61107800  1
  C  C7  1  0.02606400  0.19228300  0.38892200  1
  C  C8  1  0.96757600  0.60845500  0.21262100  1
  C  C9  1  0.00000000  0.00000000  0.00000000  1
  Ni  Ni10  1  0.31292600  0.32986900  0.67728000  1
  Ni  Ni11  1  0.31312800  0.11911800  0.27504700  1
  Ni  Ni12  1  0.68687200  0.88088200  0.72495300  1
  Ni  Ni13  1  0.68707400  0.67013100  0.32272000  1
  Cu  Cu14  1  0.18581000  0.24973700  0.96968000  1
  Cu  Cu15  1  0.20816000  0.04446700  0.58195000  1
  Cu  Cu16  1  0.18571900  0.45073900  0.36663400  1
  Cu  Cu17  1  0.18754600  0.62134900  0.78646200  1
  Cu  Cu18  1  0.19959900  0.82684300  0.18363500  1
  Cu  Cu19  1  0.29834500  0.95419300  0.87623400  1
  Cu  Cu20  1  0.29223800  0.55317300  0.07711700  1
  Cu  Cu21  1  0.28784700  0.75135200  0.48176100  1
  Cu  Cu22  1  0.71215300  0.24864800  0.51823900  1
  Cu  Cu23  1  0.70165500  0.04580700  0.12376600  1
  Cu  Cu24  1  0.70776200  0.44682700  0.92288300  1
  Cu  Cu25  1  0.81428100  0.54926100  0.63336600  1
  Cu  Cu26  1  0.79184000  0.95553300  0.41805000  1
  Cu  Cu27  1  0.80040100  0.17315700  0.81636500  1
  Cu  Cu28  1  0.81419000  0.75026300  0.03032000  1
  Cu  Cu29  1  0.81245400  0.37865100  0.21353800  1
