# generated using pymatgen
data_CuNi4C3
_symmetry_space_group_name_H-M   'P 1'
_cell_length_a   7.26442989
_cell_length_b   7.26442989
_cell_length_c   9.56105395
_cell_angle_alpha   64.22553080
_cell_angle_beta   64.22553080
_cell_angle_gamma   51.73081504
_symmetry_Int_Tables_number   1
_chemical_formula_structural   CuNi4C3
_chemical_formula_sum   'Cu4 Ni16 C12'
_cell_volume   346.80808808
_cell_formula_units_Z   4
loop_
 _symmetry_equiv_pos_site_id
 _symmetry_equiv_pos_as_xyz
  1  'x, y, z'
loop_
 _atom_site_type_symbol
 _atom_site_label
 _atom_site_symmetry_multiplicity
 _atom_site_fract_x
 _atom_site_fract_y
 _atom_site_fract_z
 _atom_site_occupancy
  C  C0  1  0.11704500  0.89880200  0.70359000  1
  C  C1  1  0.33844600  0.82162900  0.38459000  1
  C  C2  1  0.89880200  0.11704500  0.20359000  1
  C  C3  1  0.82162900  0.33844600  0.88459000  1
  C  C4  1  0.88780400  0.56122700  0.35847400  1
  C  C5  1  0.16221200  0.42685600  0.01080000  1
  C  C6  1  0.56122700  0.88780400  0.85847400  1
  C  C7  1  0.42685600  0.16221200  0.51080000  1
  C  C8  1  0.70079800  0.93842600  0.06480800  1
  C  C9  1  0.58744900  0.36332000  0.68202400  1
  C  C10  1  0.36332000  0.58744900  0.18202400  1
  C  C11  1  0.93842600  0.70079800  0.56480800  1
  Ni  Ni12  1  0.79565600  0.07278500  0.06204700  1
  Ni  Ni13  1  0.18202700  0.54874100  0.16283100  1
  Ni  Ni14  1  0.65225500  0.78293800  0.23111300  1
  Ni  Ni15  1  0.81441600  0.21426300  0.74112800  1
  Ni  Ni16  1  0.60834900  0.53551200  0.51655600  1
  Ni  Ni17  1  0.35497500  0.51946800  0.79805600  1
  Ni  Ni18  1  0.86252000  0.76599300  0.94406100  1
  Ni  Ni19  1  0.45739900  0.09316300  0.01095400  1
  Ni  Ni20  1  0.07278500  0.79565600  0.56204700  1
  Ni  Ni21  1  0.54874100  0.18202700  0.66283100  1
  Ni  Ni22  1  0.21426300  0.81441600  0.24112800  1
  Ni  Ni23  1  0.53551200  0.60834900  0.01655600  1
  Ni  Ni24  1  0.51946800  0.35497500  0.29805600  1
  Ni  Ni25  1  0.76599300  0.86252000  0.44406100  1
  Ni  Ni26  1  0.78293800  0.65225500  0.73111300  1
  Ni  Ni27  1  0.09316300  0.45739900  0.51095400  1
  Cu  Cu28  1  0.28823800  0.06043500  0.45494400  1
  Cu  Cu29  1  0.99121600  0.32427100  0.24150700  1
  Cu  Cu30  1  0.06043500  0.28823800  0.95494400  1
  Cu  Cu31  1  0.32427100  0.99121600  0.74150700  1
