# generated using pymatgen
data_Cu2Ni3C31
_symmetry_space_group_name_H-M   'P 1'
_cell_length_a   8.48580732
_cell_length_b   8.48580732
_cell_length_c   8.48580723
_cell_angle_alpha   61.44246178
_cell_angle_beta   61.44246178
_cell_angle_gamma   61.44245772
_symmetry_Int_Tables_number   1
_chemical_formula_structural   Cu2Ni3C31
_chemical_formula_sum   'Cu2 Ni3 C31'
_cell_volume   446.07652332
_cell_formula_units_Z   1
loop_
 _symmetry_equiv_pos_site_id
 _symmetry_equiv_pos_as_xyz
  1  'x, y, z'
loop_
 _atom_site_type_symbol
 _atom_site_label
 _atom_site_symmetry_multiplicity
 _atom_site_fract_x
 _atom_site_fract_y
 _atom_site_fract_z
 _atom_site_occupancy
  C  C0  1  0.85079400  0.85079400  0.85079400  1
  Ni  Ni1  1  0.14925300  0.14925300  0.14925300  1
  Ni  Ni2  1  0.35238100  0.35238100  0.35238100  1
  Ni  Ni3  1  0.64595100  0.64595100  0.64595100  1
  Cu  Cu4  1  0.00235500  0.00235500  0.00235500  1
  Cu  Cu5  1  0.50175300  0.50175300  0.50175300  1
  C  C6  1  0.74752400  0.04514200  0.45217300  1
  C  C7  1  0.04514200  0.45217300  0.74752400  1
  C  C8  1  0.54367200  0.25037900  0.95563000  1
  C  C9  1  0.95563000  0.54367200  0.25037900  1
  C  C10  1  0.25037900  0.95563000  0.54367200  1
  C  C11  1  0.45217300  0.74752400  0.04514200  1
  C  C12  1  0.31682300  0.10376800  0.51750300  1
  C  C13  1  0.51750300  0.31682300  0.10376800  1
  C  C14  1  0.90479700  0.06766100  0.25127300  1
  C  C15  1  0.10376800  0.51750300  0.31682300  1
  C  C16  1  0.82348600  0.99330800  0.61229000  1
  C  C17  1  0.59738200  0.24787800  0.44483800  1
  C  C18  1  0.06766100  0.25127300  0.90479700  1
  C  C19  1  0.24787800  0.44483800  0.59738200  1
  C  C20  1  0.39997000  0.17479800  0.98753200  1
  C  C21  1  0.44483800  0.59738200  0.24787800  1
  C  C22  1  0.75250900  0.08839900  0.93400300  1
  C  C23  1  0.98753200  0.39997000  0.17479800  1
  C  C24  1  0.99330800  0.61229000  0.82348600  1
  C  C25  1  0.25127300  0.90479700  0.06766100  1
  C  C26  1  0.56942300  0.40255500  0.74917000  1
  C  C27  1  0.61229000  0.82348600  0.99330800  1
  C  C28  1  0.74917000  0.56942300  0.40255500  1
  C  C29  1  0.93400300  0.75250900  0.08839900  1
  C  C30  1  0.40255500  0.74917000  0.56942300  1
  C  C31  1  0.17479800  0.98753200  0.39997000  1
  C  C32  1  0.89657400  0.48998400  0.67707200  1
  C  C33  1  0.08839900  0.93400300  0.75250900  1
  C  C34  1  0.48998400  0.67707200  0.89657400  1
  C  C35  1  0.67707200  0.89657400  0.48998400  1
