# generated using pymatgen
data_Cu2Ni4C3
_symmetry_space_group_name_H-M   'P 1'
_cell_length_a   4.70797300
_cell_length_b   4.71327400
_cell_length_c   9.03428100
_cell_angle_alpha   90.00000000
_cell_angle_beta   90.00000000
_cell_angle_gamma   90.00000000
_symmetry_Int_Tables_number   1
_chemical_formula_structural   Cu2Ni4C3
_chemical_formula_sum   'Cu4 Ni8 C6'
_cell_volume   200.47039485
_cell_formula_units_Z   2
loop_
 _symmetry_equiv_pos_site_id
 _symmetry_equiv_pos_as_xyz
  1  'x, y, z'
loop_
 _atom_site_type_symbol
 _atom_site_label
 _atom_site_symmetry_multiplicity
 _atom_site_fract_x
 _atom_site_fract_y
 _atom_site_fract_z
 _atom_site_occupancy
  C  C0  1  0.98773500  0.71353500  0.84610200  1
  C  C1  1  0.98773500  0.71353500  0.15389800  1
  C  C2  1  0.02012500  0.74772300  0.50000000  1
  C  C3  1  0.52012500  0.25227700  0.00000000  1
  C  C4  1  0.48773500  0.28646500  0.65389800  1
  C  C5  1  0.48773500  0.28646500  0.34610200  1
  Ni  Ni6  1  0.20767400  0.52967700  0.00000000  1
  Ni  Ni7  1  0.19703500  0.55989800  0.32834700  1
  Ni  Ni8  1  0.19703500  0.55989800  0.67165300  1
  Ni  Ni9  1  0.69703500  0.44010200  0.82834700  1
  Ni  Ni10  1  0.69703500  0.44010200  0.17165300  1
  Ni  Ni11  1  0.70767400  0.47032300  0.50000000  1
  Ni  Ni12  1  0.30188800  0.05945700  0.50000000  1
  Ni  Ni13  1  0.80188800  0.94054300  0.00000000  1
  Cu  Cu14  1  0.30054300  0.04694800  0.82973300  1
  Cu  Cu15  1  0.30054300  0.04694800  0.17026700  1
  Cu  Cu16  1  0.80054300  0.95305200  0.67026700  1
  Cu  Cu17  1  0.80054300  0.95305200  0.32973300  1
