# generated using pymatgen
data_Cu11NiC8
_symmetry_space_group_name_H-M   'P 1'
_cell_length_a   5.12700700
_cell_length_b   5.45240942
_cell_length_c   8.69552588
_cell_angle_alpha   106.83925886
_cell_angle_beta   90.28045342
_cell_angle_gamma   117.97610253
_symmetry_Int_Tables_number   1
_chemical_formula_structural   Cu11NiC8
_chemical_formula_sum   'Cu11 Ni1 C8'
_cell_volume   202.59892816
_cell_formula_units_Z   1
loop_
 _symmetry_equiv_pos_site_id
 _symmetry_equiv_pos_as_xyz
  1  'x, y, z'
loop_
 _atom_site_type_symbol
 _atom_site_label
 _atom_site_symmetry_multiplicity
 _atom_site_fract_x
 _atom_site_fract_y
 _atom_site_fract_z
 _atom_site_occupancy
  C  C0  1  0.02806200  0.26822400  0.08155100  1
  C  C1  1  0.61068100  0.30499600  0.56826500  1
  C  C2  1  0.17594700  0.72658300  0.16676800  1
  C  C3  1  0.68749900  0.69590500  0.68262800  1
  C  C4  1  0.41294300  0.71416200  0.43774800  1
  C  C5  1  0.81910700  0.28317300  0.81330300  1
  C  C6  1  0.33891500  0.32124500  0.32184500  1
  C  C7  1  0.91428200  0.67957700  0.92588800  1
  Ni  Ni8  1  0.47924200  0.49250800  0.13410900  1
  Cu  Cu9  1  0.81389300  0.79492800  0.22736300  1
  Cu  Cu10  1  0.32248300  0.79268900  0.72690300  1
  Cu  Cu11  1  0.08881500  0.49824100  0.35839700  1
  Cu  Cu12  1  0.82708300  0.85449600  0.45548700  1
  Cu  Cu13  1  0.26364000  0.79627000  0.96992200  1
  Cu  Cu14  1  0.23457800  0.20930800  0.51602500  1
  Cu  Cu15  1  0.71996000  0.20359300  0.02281500  1
  Cu  Cu16  1  0.55078200  0.49668500  0.89096600  1
  Cu  Cu17  1  0.91709100  0.49992100  0.62491700  1
  Cu  Cu18  1  0.65178800  0.20166600  0.27910500  1
  Cu  Cu19  1  0.12449600  0.13907400  0.79547700  1
