# generated using pymatgen
data_Cu9Ni10C7
_symmetry_space_group_name_H-M   'P 1'
_cell_length_a   9.38334000
_cell_length_b   11.60014040
_cell_length_c   15.62397452
_cell_angle_alpha   68.69933640
_cell_angle_beta   84.34126843
_cell_angle_gamma   82.62574956
_symmetry_Int_Tables_number   1
_chemical_formula_structural   Cu9Ni10C7
_chemical_formula_sum   'Cu36 Ni40 C28'
_cell_volume   1568.87007913
_cell_formula_units_Z   4
loop_
 _symmetry_equiv_pos_site_id
 _symmetry_equiv_pos_as_xyz
  1  'x, y, z'
loop_
 _atom_site_type_symbol
 _atom_site_label
 _atom_site_symmetry_multiplicity
 _atom_site_fract_x
 _atom_site_fract_y
 _atom_site_fract_z
 _atom_site_occupancy
  C  C0  1  0.89707300  0.17827400  0.17815900  1
  C  C1  1  0.10292700  0.82172600  0.82184100  1
  C  C2  1  0.08600400  0.29219000  0.06857900  1
  C  C3  1  0.91399600  0.70781000  0.93142100  1
  C  C4  1  0.15559300  0.11818300  0.21323200  1
  C  C5  1  0.84440700  0.88181700  0.78676800  1
  C  C6  1  0.06856300  0.99305900  0.04630800  1
  C  C7  1  0.93143700  0.00694100  0.95369200  1
  C  C8  1  0.51919900  0.65036500  0.69515200  1
  C  C9  1  0.48080100  0.34963500  0.30484800  1
  C  C10  1  0.32843100  0.50225000  0.74070800  1
  C  C11  1  0.67156900  0.49775000  0.25929200  1
  C  C12  1  0.26314900  0.72756000  0.66242100  1
  C  C13  1  0.73685100  0.27244000  0.33757900  1
  C  C14  1  0.42295800  0.59132600  0.49734800  1
  C  C15  1  0.57704200  0.40867400  0.50265200  1
  C  C16  1  0.92248200  0.22820800  0.05199800  1
  C  C17  1  0.07751800  0.77179200  0.94800200  1
  C  C18  1  0.00505200  0.02486600  0.22117300  1
  C  C19  1  0.99494800  0.97513400  0.77882700  1
  C  C20  1  0.22711000  0.16049400  0.09258000  1
  C  C21  1  0.77289000  0.83950600  0.90742000  1
  C  C22  1  0.51217600  0.49782100  0.68455700  1
  C  C23  1  0.48782400  0.50217900  0.31544300  1
  C  C24  1  0.43275600  0.76449900  0.59246900  1
  C  C25  1  0.56724400  0.23550100  0.40753100  1
  C  C26  1  0.21089200  0.58925700  0.64552000  1
  C  C27  1  0.78910800  0.41074300  0.35448000  1
  Ni  Ni28  1  0.06100500  0.06075700  0.08064100  1
  Ni  Ni29  1  0.93899500  0.93924300  0.91935900  1
  Ni  Ni30  1  0.95674100  0.28019100  0.92178900  1
  Ni  Ni31  1  0.04325900  0.71980900  0.07821100  1
  Ni  Ni32  1  0.82554200  0.38647900  0.05583000  1
  Ni  Ni33  1  0.17445800  0.61352100  0.94417000  1
  Ni  Ni34  1  0.75112000  0.16338800  0.04267500  1
  Ni  Ni35  1  0.24888000  0.83661200  0.95732500  1
  Ni  Ni36  1  0.96476000  0.04506000  0.34029500  1
  Ni  Ni37  1  0.03524000  0.95494000  0.65970500  1
  Ni  Ni38  1  0.12209600  0.87192400  0.26786900  1
  Ni  Ni39  1  0.87790400  0.12807600  0.73213100  1
  Ni  Ni40  1  0.84512500  0.93731500  0.22413700  1
  Ni  Ni41  1  0.15487500  0.06268500  0.77586300  1
  Ni  Ni42  1  0.29181600  0.21983100  0.96610000  1
  Ni  Ni43  1  0.70818400  0.78016900  0.03390000  1
  Ni  Ni44  1  0.36340500  0.01667400  0.12115000  1
  Ni  Ni45  1  0.63659500  0.98332600  0.87885000  1
  Ni  Ni46  1  0.34347100  0.26624600  0.12406500  1
  Ni  Ni47  1  0.65652900  0.73375400  0.87593500  1
  Ni  Ni48  1  0.40597900  0.60402400  0.56349300  1
  Ni  Ni49  1  0.59402100  0.39597600  0.43650700  1
  Ni  Ni50  1  0.57109400  0.43169900  0.81164200  1
  Ni  Ni51  1  0.42890600  0.56830100  0.18835800  1
  Ni  Ni52  1  0.49669200  0.34010100  0.67573800  1
  Ni  Ni53  1  0.50330800  0.65989900  0.32426200  1
  Ni  Ni54  1  0.70251900  0.50333500  0.62989200  1
  Ni  Ni55  1  0.29748100  0.49666500  0.37010800  1
  Ni  Ni56  1  0.33598700  0.88197000  0.48952300  1
  Ni  Ni57  1  0.66401300  0.11803000  0.51047700  1
  Ni  Ni58  1  0.43947100  0.87486000  0.66125500  1
  Ni  Ni59  1  0.56052900  0.12514000  0.33874500  1
  Ni  Ni60  1  0.61151600  0.80111000  0.52353300  1
  Ni  Ni61  1  0.38848400  0.19889000  0.47646700  1
  Ni  Ni62  1  0.09666100  0.68862500  0.54507800  1
  Ni  Ni63  1  0.90333900  0.31137500  0.45492200  1
  Ni  Ni64  1  0.05988200  0.59119100  0.74065700  1
  Ni  Ni65  1  0.94011800  0.40880900  0.25934300  1
  Ni  Ni66  1  0.16043700  0.44013000  0.63658700  1
  Ni  Ni67  1  0.83956300  0.55987000  0.36341300  1
  Cu  Cu68  1  0.97784100  0.30703600  0.84272300  1
  Cu  Cu69  1  0.02215900  0.69296400  0.15727700  1
  Cu  Cu70  1  0.76619200  0.47974000  0.05799200  1
  Cu  Cu71  1  0.23380800  0.52026000  0.94200800  1
  Cu  Cu72  1  0.64780100  0.12196500  0.03651500  1
  Cu  Cu73  1  0.35219900  0.87803500  0.96348500  1
  Cu  Cu74  1  0.94299100  0.05737200  0.41095900  1
  Cu  Cu75  1  0.05700900  0.94262800  0.58904100  1
  Cu  Cu76  1  0.19380700  0.77799200  0.29460700  1
  Cu  Cu77  1  0.80619300  0.22200800  0.70539300  1
  Cu  Cu78  1  0.74956500  0.88527100  0.22058900  1
  Cu  Cu79  1  0.25043500  0.11472900  0.77941100  1
  Cu  Cu80  1  0.32568500  0.25917300  0.88828800  1
  Cu  Cu81  1  0.67431500  0.74082700  0.11171200  1
  Cu  Cu82  1  0.43966400  0.92517400  0.13861700  1
  Cu  Cu83  1  0.56033600  0.07482600  0.86138300  1
  Cu  Cu84  1  0.41777600  0.32705200  0.14099900  1
  Cu  Cu85  1  0.58222400  0.67294800  0.85900100  1
  Cu  Cu86  1  0.60782500  0.39116300  0.88652500  1
  Cu  Cu87  1  0.39217500  0.60883700  0.11347500  1
  Cu  Cu88  1  0.48593300  0.24664000  0.66675900  1
  Cu  Cu89  1  0.51406700  0.75336000  0.33324100  1
  Cu  Cu90  1  0.81783600  0.51069600  0.59459800  1
  Cu  Cu91  1  0.18216400  0.48930400  0.40540200  1
  Cu  Cu92  1  0.27963600  0.95210200  0.42527500  1
  Cu  Cu93  1  0.72036400  0.04789800  0.57472500  1
  Cu  Cu94  1  0.44450000  0.93849100  0.70346300  1
  Cu  Cu95  1  0.55550000  0.06150900  0.29653700  1
  Cu  Cu96  1  0.71808100  0.82557500  0.47946500  1
  Cu  Cu97  1  0.28191900  0.17442500  0.52053500  1
  Cu  Cu98  1  0.03155600  0.75070900  0.48236500  1
  Cu  Cu99  1  0.96844400  0.24929100  0.51763500  1
  Cu  Cu100  1  0.96539700  0.59340300  0.79432100  1
  Cu  Cu101  1  0.03460300  0.40659700  0.20567900  1
  Cu  Cu102  1  0.13068200  0.34919000  0.63087800  1
  Cu  Cu103  1  0.86931800  0.65081000  0.36912200  1
