# generated using pymatgen
data_Cu(NiC4)3
_symmetry_space_group_name_H-M   'P 1'
_cell_length_a   5.97136344
_cell_length_b   5.97136344
_cell_length_c   5.97136406
_cell_angle_alpha   61.74958582
_cell_angle_beta   61.74958582
_cell_angle_gamma   61.74958683
_symmetry_Int_Tables_number   1
_chemical_formula_structural   Cu(NiC4)3
_chemical_formula_sum   'Cu1 Ni3 C12'
_cell_volume   156.46117283
_cell_formula_units_Z   1
loop_
 _symmetry_equiv_pos_site_id
 _symmetry_equiv_pos_as_xyz
  1  'x, y, z'
loop_
 _atom_site_type_symbol
 _atom_site_label
 _atom_site_symmetry_multiplicity
 _atom_site_fract_x
 _atom_site_fract_y
 _atom_site_fract_z
 _atom_site_occupancy
  C  C0  1  0.50000000  0.50000000  0.50000000  1
  C  C1  1  0.00000000  0.00000000  0.50000000  1
  C  C2  1  0.00000000  0.50000000  0.00000000  1
  C  C3  1  0.50000000  0.00000000  0.00000000  1
  Ni  Ni4  1  0.50000000  0.50000000  0.00000000  1
  Ni  Ni5  1  0.50000000  0.00000000  0.50000000  1
  Ni  Ni6  1  0.00000000  0.50000000  0.50000000  1
  Cu  Cu7  1  0.00000000  0.00000000  0.00000000  1
  C  C8  1  0.73002100  0.73002100  0.73002100  1
  C  C9  1  0.23016600  0.23016600  0.78383300  1
  C  C10  1  0.23016600  0.78383300  0.23016600  1
  C  C11  1  0.26997900  0.26997900  0.26997900  1
  C  C12  1  0.78383300  0.23016600  0.23016600  1
  C  C13  1  0.76983400  0.76983400  0.21616700  1
  C  C14  1  0.76983400  0.21616700  0.76983400  1
  C  C15  1  0.21616700  0.76983400  0.76983400  1
