# generated using pymatgen
data_Cu2NiC33
_symmetry_space_group_name_H-M   'P 1'
_cell_length_a   9.02905786
_cell_length_b   9.02905786
_cell_length_c   9.02905799
_cell_angle_alpha   57.00993510
_cell_angle_beta   57.00993510
_cell_angle_gamma   57.00993516
_symmetry_Int_Tables_number   1
_chemical_formula_structural   Cu2NiC33
_chemical_formula_sum   'Cu2 Ni1 C33'
_cell_volume   484.60700416
_cell_formula_units_Z   1
loop_
 _symmetry_equiv_pos_site_id
 _symmetry_equiv_pos_as_xyz
  1  'x, y, z'
loop_
 _atom_site_type_symbol
 _atom_site_label
 _atom_site_symmetry_multiplicity
 _atom_site_fract_x
 _atom_site_fract_y
 _atom_site_fract_z
 _atom_site_occupancy
  C  C0  1  0.85559800  0.85559800  0.85559800  1
  C  C1  1  0.64796400  0.64796400  0.64796400  1
  C  C2  1  0.34802500  0.34802500  0.34802500  1
  Ni  Ni3  1  0.15027900  0.15027900  0.15027900  1
  Cu  Cu4  1  0.01410000  0.01410000  0.01410000  1
  Cu  Cu5  1  0.49657600  0.49657600  0.49657600  1
  C  C6  1  0.53541800  0.95800500  0.24983600  1
  C  C7  1  0.24983600  0.53541800  0.95800500  1
  C  C8  1  0.03806100  0.74709700  0.46599400  1
  C  C9  1  0.74709700  0.46599400  0.03806100  1
  C  C10  1  0.46599400  0.03806100  0.74709700  1
  C  C11  1  0.95800500  0.24983600  0.53541800  1
  C  C12  1  0.50374900  0.87516100  0.70347900  1
  C  C13  1  0.87516100  0.70347900  0.50374900  1
  C  C14  1  0.71761100  0.93673100  0.07376000  1
  C  C15  1  0.70347900  0.50374900  0.87516100  1
  C  C16  1  0.37064700  0.97390600  0.23264700  1
  C  C17  1  0.57753500  0.77813400  0.42186800  1
  C  C18  1  0.07376000  0.71761100  0.93673100  1
  C  C19  1  0.42186800  0.57753500  0.77813400  1
  C  C20  1  0.00600800  0.78346900  0.63069600  1
  C  C21  1  0.77813400  0.42186800  0.57753500  1
  C  C22  1  0.05774500  0.91900200  0.28149900  1
  C  C23  1  0.78346900  0.63069600  0.00600800  1
  C  C24  1  0.23264700  0.37064700  0.97390600  1
  C  C25  1  0.93673100  0.07376000  0.71761100  1
  C  C26  1  0.22231800  0.57106900  0.44197200  1
  C  C27  1  0.97390600  0.23264700  0.37064700  1
  C  C28  1  0.57106900  0.44197200  0.22231800  1
  C  C29  1  0.91900200  0.28149900  0.05774500  1
  C  C30  1  0.44197200  0.22231800  0.57106900  1
  C  C31  1  0.63069600  0.00600800  0.78346900  1
  C  C32  1  0.27973000  0.50294400  0.13136400  1
  C  C33  1  0.28149900  0.05774500  0.91900200  1
  C  C34  1  0.13136400  0.27973000  0.50294400  1
  C  C35  1  0.50294400  0.13136400  0.27973000  1
