# generated using pymatgen
data_Cu(NiC)4
_symmetry_space_group_name_H-M   'P 1'
_cell_length_a   5.13051500
_cell_length_b   11.36874300
_cell_length_c   12.97056900
_cell_angle_alpha   90.00000000
_cell_angle_beta   90.00000000
_cell_angle_gamma   90.00000000
_symmetry_Int_Tables_number   1
_chemical_formula_structural   Cu(NiC)4
_chemical_formula_sum   'Cu8 Ni32 C32'
_cell_volume   756.54094756
_cell_formula_units_Z   8
loop_
 _symmetry_equiv_pos_site_id
 _symmetry_equiv_pos_as_xyz
  1  'x, y, z'
loop_
 _atom_site_type_symbol
 _atom_site_label
 _atom_site_symmetry_multiplicity
 _atom_site_fract_x
 _atom_site_fract_y
 _atom_site_fract_z
 _atom_site_occupancy
  C  C0  1  0.22356100  0.17841200  0.24064500  1
  C  C1  1  0.22356100  0.67841200  0.75935500  1
  C  C2  1  0.23431800  0.39929700  0.63080600  1
  C  C3  1  0.23431800  0.89929700  0.36919400  1
  C  C4  1  0.26568200  0.39929700  0.13080600  1
  C  C5  1  0.26568200  0.89929700  0.86919400  1
  C  C6  1  0.27643900  0.67841200  0.25935500  1
  C  C7  1  0.27643900  0.17841200  0.74064500  1
  C  C8  1  0.72356100  0.82158800  0.25935500  1
  C  C9  1  0.72356100  0.32158800  0.74064500  1
  C  C10  1  0.73431800  0.10070300  0.13080600  1
  C  C11  1  0.73431800  0.60070300  0.86919400  1
  C  C12  1  0.76568200  0.60070300  0.36919400  1
  C  C13  1  0.76568200  0.10070300  0.63080600  1
  C  C14  1  0.77643900  0.32158800  0.24064500  1
  C  C15  1  0.77643900  0.82158800  0.75935500  1
  C  C16  1  0.21752300  0.66935700  0.48987700  1
  C  C17  1  0.21752300  0.16935700  0.51012300  1
  C  C18  1  0.28247700  0.16935700  0.01012300  1
  C  C19  1  0.28247700  0.66935700  0.98987700  1
  C  C20  1  0.71752300  0.33064300  0.01012300  1
  C  C21  1  0.71752300  0.83064300  0.98987700  1
  C  C22  1  0.78247700  0.33064300  0.51012300  1
  C  C23  1  0.78247700  0.83064300  0.48987700  1
  C  C24  1  0.20584600  0.91378300  0.12671200  1
  C  C25  1  0.20584600  0.41378300  0.87328800  1
  C  C26  1  0.29415400  0.41378300  0.37328800  1
  C  C27  1  0.29415400  0.91378300  0.62671200  1
  C  C28  1  0.70584600  0.08621700  0.37328800  1
  C  C29  1  0.70584600  0.58621700  0.62671200  1
  C  C30  1  0.79415400  0.58621700  0.12671200  1
  C  C31  1  0.79415400  0.08621700  0.87328800  1
  Ni  Ni32  1  0.09857400  0.60006800  0.11834200  1
  Ni  Ni33  1  0.09857400  0.10006800  0.88165800  1
  Ni  Ni34  1  0.16981900  0.35339400  0.47063300  1
  Ni  Ni35  1  0.16981900  0.85339400  0.52936700  1
  Ni  Ni36  1  0.18513500  0.35705400  0.27538900  1
  Ni  Ni37  1  0.18513500  0.85705400  0.72461100  1
  Ni  Ni38  1  0.22051100  0.04645400  0.62473500  1
  Ni  Ni39  1  0.22051100  0.54645400  0.37526500  1
  Ni  Ni40  1  0.27948900  0.04645400  0.12473500  1
  Ni  Ni41  1  0.27948900  0.54645400  0.87526500  1
  Ni  Ni42  1  0.31486500  0.85705400  0.22461100  1
  Ni  Ni43  1  0.31486500  0.35705400  0.77538900  1
  Ni  Ni44  1  0.33018100  0.35339400  0.97063300  1
  Ni  Ni45  1  0.33018100  0.85339400  0.02936700  1
  Ni  Ni46  1  0.40142600  0.60006800  0.61834200  1
  Ni  Ni47  1  0.40142600  0.10006800  0.38165800  1
  Ni  Ni48  1  0.59857400  0.89993200  0.61834200  1
  Ni  Ni49  1  0.59857400  0.39993200  0.38165800  1
  Ni  Ni50  1  0.66981900  0.64660600  0.02936700  1
  Ni  Ni51  1  0.66981900  0.14660600  0.97063300  1
  Ni  Ni52  1  0.68513500  0.64294600  0.22461100  1
  Ni  Ni53  1  0.68513500  0.14294600  0.77538900  1
  Ni  Ni54  1  0.72051100  0.45354600  0.12473500  1
  Ni  Ni55  1  0.72051100  0.95354600  0.87526500  1
  Ni  Ni56  1  0.77948900  0.95354600  0.37526500  1
  Ni  Ni57  1  0.77948900  0.45354600  0.62473500  1
  Ni  Ni58  1  0.81486500  0.14294600  0.27538900  1
  Ni  Ni59  1  0.81486500  0.64294600  0.72461100  1
  Ni  Ni60  1  0.83018100  0.14660600  0.47063300  1
  Ni  Ni61  1  0.83018100  0.64660600  0.52936700  1
  Ni  Ni62  1  0.90142600  0.89993200  0.11834200  1
  Ni  Ni63  1  0.90142600  0.39993200  0.88165800  1
  Cu  Cu64  1  0.00000000  0.25000000  0.10033800  1
  Cu  Cu65  1  0.00000000  0.25000000  0.63826600  1
  Cu  Cu66  1  0.00000000  0.75000000  0.36173400  1
  Cu  Cu67  1  0.00000000  0.75000000  0.89966200  1
  Cu  Cu68  1  0.50000000  0.25000000  0.60033800  1
  Cu  Cu69  1  0.50000000  0.25000000  0.13826600  1
  Cu  Cu70  1  0.50000000  0.75000000  0.39966200  1
  Cu  Cu71  1  0.50000000  0.75000000  0.86173400  1
