# generated using pymatgen
data_Cu6NiC4
_symmetry_space_group_name_H-M   'P 1'
_cell_length_a   8.15102100
_cell_length_b   8.15102100
_cell_length_c   5.70658900
_cell_angle_alpha   90.00000000
_cell_angle_beta   90.00000000
_cell_angle_gamma   90.00000000
_symmetry_Int_Tables_number   1
_chemical_formula_structural   Cu6NiC4
_chemical_formula_sum   'Cu12 Ni2 C8'
_cell_volume   379.14088457
_cell_formula_units_Z   2
loop_
 _symmetry_equiv_pos_site_id
 _symmetry_equiv_pos_as_xyz
  1  'x, y, z'
loop_
 _atom_site_type_symbol
 _atom_site_label
 _atom_site_symmetry_multiplicity
 _atom_site_fract_x
 _atom_site_fract_y
 _atom_site_fract_z
 _atom_site_occupancy
  Ni  Ni0  1  0.50000000  0.50000000  0.00000000  1
  Ni  Ni1  1  0.00000000  0.00000000  0.50000000  1
  Cu  Cu2  1  0.28693500  0.28693500  0.50000000  1
  Cu  Cu3  1  0.71306500  0.28693500  0.50000000  1
  Cu  Cu4  1  0.00000000  0.50000000  0.47434400  1
  Cu  Cu5  1  0.00000000  0.50000000  0.97434400  1
  Cu  Cu6  1  0.28693500  0.71306500  0.50000000  1
  Cu  Cu7  1  0.71306500  0.71306500  0.50000000  1
  Cu  Cu8  1  0.78693500  0.78693500  0.00000000  1
  Cu  Cu9  1  0.21306500  0.78693500  0.00000000  1
  Cu  Cu10  1  0.50000000  0.00000000  0.02565600  1
  Cu  Cu11  1  0.50000000  0.00000000  0.52565600  1
  Cu  Cu12  1  0.78693500  0.21306500  0.00000000  1
  Cu  Cu13  1  0.21306500  0.21306500  0.00000000  1
  C  C14  1  0.00000000  0.26853000  0.73150300  1
  C  C15  1  0.76853000  0.50000000  0.23150300  1
  C  C16  1  0.23147000  0.50000000  0.23150300  1
  C  C17  1  0.00000000  0.73147000  0.73150300  1
  C  C18  1  0.50000000  0.76853000  0.76849700  1
  C  C19  1  0.73147000  0.00000000  0.26849700  1
  C  C20  1  0.26853000  0.00000000  0.26849700  1
  C  C21  1  0.50000000  0.23147000  0.76849700  1
