# generated using pymatgen
data_Cu3(NiC7)2
_symmetry_space_group_name_H-M   'P 1'
_cell_length_a   5.38706505
_cell_length_b   5.38706505
_cell_length_c   16.24746996
_cell_angle_alpha   82.87111342
_cell_angle_beta   82.87111342
_cell_angle_gamma   61.42741470
_symmetry_Int_Tables_number   1
_chemical_formula_structural   Cu3(NiC7)2
_chemical_formula_sum   'Cu6 Ni4 C28'
_cell_volume   409.74818929
_cell_formula_units_Z   2
loop_
 _symmetry_equiv_pos_site_id
 _symmetry_equiv_pos_as_xyz
  1  'x, y, z'
loop_
 _atom_site_type_symbol
 _atom_site_label
 _atom_site_symmetry_multiplicity
 _atom_site_fract_x
 _atom_site_fract_y
 _atom_site_fract_z
 _atom_site_occupancy
  C  C0  1  0.83528500  0.68244700  0.94687400  1
  C  C1  1  0.58414200  0.78752200  0.76560000  1
  C  C2  1  0.68244700  0.83528500  0.44687400  1
  C  C3  1  0.78752200  0.58414200  0.26560000  1
  C  C4  1  0.21247800  0.41585800  0.73440000  1
  C  C5  1  0.31755300  0.16471500  0.55312600  1
  C  C6  1  0.41585800  0.21247800  0.23440000  1
  C  C7  1  0.16471500  0.31755300  0.05312600  1
  Ni  Ni8  1  0.20058500  0.97975000  0.91795800  1
  Ni  Ni9  1  0.97975000  0.20058500  0.41795800  1
  Ni  Ni10  1  0.02025000  0.79941500  0.58204200  1
  Ni  Ni11  1  0.79941500  0.02025000  0.08204200  1
  Cu  Cu12  1  0.65605300  0.47087300  0.59688800  1
  Cu  Cu13  1  0.89103100  0.10896900  0.75000000  1
  Cu  Cu14  1  0.52912700  0.34394700  0.90311200  1
  Cu  Cu15  1  0.47087300  0.65605300  0.09688800  1
  Cu  Cu16  1  0.10896900  0.89103100  0.25000000  1
  Cu  Cu17  1  0.34394700  0.52912700  0.40311200  1
  C  C18  1  0.93277600  0.83771200  0.70497300  1
  C  C19  1  0.83771200  0.93277600  0.20497300  1
  C  C20  1  0.60711800  0.78463700  0.56574900  1
  C  C21  1  0.56756400  0.63197700  0.88656000  1
  C  C22  1  0.80210000  0.40259900  0.68828400  1
  C  C23  1  0.77840000  0.09038200  0.95922900  1
  C  C24  1  0.90961800  0.22160000  0.54077100  1
  C  C25  1  0.78463700  0.60711800  0.06574900  1
  C  C26  1  0.63197700  0.56756400  0.38656000  1
  C  C27  1  0.59740100  0.19790000  0.81171600  1
  C  C28  1  0.40259900  0.80210000  0.18828400  1
  C  C29  1  0.36802300  0.43243600  0.61344000  1
  C  C30  1  0.21536300  0.39288200  0.93425100  1
  C  C31  1  0.09038200  0.77840000  0.45922900  1
  C  C32  1  0.22160000  0.90961800  0.04077100  1
  C  C33  1  0.19790000  0.59740100  0.31171600  1
  C  C34  1  0.43243600  0.36802300  0.11344000  1
  C  C35  1  0.39288200  0.21536300  0.43425100  1
  C  C36  1  0.16228800  0.06722400  0.79502700  1
  C  C37  1  0.06722400  0.16228800  0.29502700  1
