# generated using pymatgen
data_Cu7NiC5
_symmetry_space_group_name_H-M   'P 1'
_cell_length_a   6.84885606
_cell_length_b   10.32729591
_cell_length_c   10.52845319
_cell_angle_alpha   119.07454475
_cell_angle_beta   90.01413753
_cell_angle_gamma   89.99474649
_symmetry_Int_Tables_number   1
_chemical_formula_structural   Cu7NiC5
_chemical_formula_sum   'Cu28 Ni4 C20'
_cell_volume   650.84082722
_cell_formula_units_Z   4
loop_
 _symmetry_equiv_pos_site_id
 _symmetry_equiv_pos_as_xyz
  1  'x, y, z'
loop_
 _atom_site_type_symbol
 _atom_site_label
 _atom_site_symmetry_multiplicity
 _atom_site_fract_x
 _atom_site_fract_y
 _atom_site_fract_z
 _atom_site_occupancy
  C  C0  1  0.24969100  0.34093800  0.40583600  1
  C  C1  1  0.25061400  0.84227300  0.90688600  1
  C  C2  1  0.75058100  0.65762600  0.59298000  1
  C  C3  1  0.74991100  0.15910800  0.09416500  1
  C  C4  1  0.99200700  0.00142600  0.24095100  1
  C  C5  1  0.99213500  0.50144600  0.74196100  1
  C  C6  1  0.50773100  0.00117300  0.24118200  1
  C  C7  1  0.50805500  0.50173100  0.74219800  1
  C  C8  1  0.49226000  0.99867400  0.75820600  1
  C  C9  1  0.49183000  0.49855100  0.25919500  1
  C  C10  1  0.00795900  0.99821400  0.75770900  1
  C  C11  1  0.00748400  0.49893000  0.25886200  1
  C  C12  1  0.75176300  0.71695200  0.05144300  1
  C  C13  1  0.25216000  0.78343800  0.44867400  1
  C  C14  1  0.74975400  0.21487200  0.55095700  1
  C  C15  1  0.25034000  0.28506900  0.94900700  1
  C  C16  1  0.74990700  0.33394800  0.39924500  1
  C  C17  1  0.74927200  0.83382200  0.89859500  1
  C  C18  1  0.24882500  0.66608300  0.60122800  1
  C  C19  1  0.24987700  0.16597000  0.10070400  1
  Ni  Ni20  1  0.24981700  0.14735900  0.56648500  1
  Ni  Ni21  1  0.25043200  0.64732800  0.06799300  1
  Ni  Ni22  1  0.75017800  0.85269900  0.43223700  1
  Ni  Ni23  1  0.74990300  0.35263000  0.93337600  1
  Cu  Cu24  1  0.24982000  0.10175500  0.18701100  1
  Cu  Cu25  1  0.24986900  0.60272200  0.68814900  1
  Cu  Cu26  1  0.75014200  0.89721600  0.81174700  1
  Cu  Cu27  1  0.74967400  0.39815600  0.31292200  1
  Cu  Cu28  1  0.74973600  0.41353800  0.55169400  1
  Cu  Cu29  1  0.74799500  0.91450500  0.05114100  1
  Cu  Cu30  1  0.24693500  0.58546200  0.44875400  1
  Cu  Cu31  1  0.25022200  0.08637400  0.94824400  1
  Cu  Cu32  1  0.75020900  0.17963000  0.34422500  1
  Cu  Cu33  1  0.75127400  0.67925500  0.84374200  1
  Cu  Cu34  1  0.25155200  0.82066800  0.65608900  1
  Cu  Cu35  1  0.24957900  0.32029200  0.15572200  1
  Cu  Cu36  1  0.25090500  0.98964000  0.44546500  1
  Cu  Cu37  1  0.25039000  0.49083900  0.94423400  1
  Cu  Cu38  1  0.74995200  0.00925800  0.55591000  1
  Cu  Cu39  1  0.75045900  0.51042800  0.05423300  1
  Cu  Cu40  1  0.75138000  0.85550500  0.29208200  1
  Cu  Cu41  1  0.74962100  0.35117200  0.79115400  1
  Cu  Cu42  1  0.24996200  0.14856300  0.70859700  1
  Cu  Cu43  1  0.25159200  0.64444300  0.20809600  1
  Cu  Cu44  1  0.07469800  0.22563400  0.55254700  1
  Cu  Cu45  1  0.07465900  0.72710500  0.05770800  1
  Cu  Cu46  1  0.42446600  0.22622800  0.55284700  1
  Cu  Cu47  1  0.42416700  0.72786400  0.05625500  1
  Cu  Cu48  1  0.57439500  0.77292700  0.44253300  1
  Cu  Cu49  1  0.57508200  0.27410400  0.94740100  1
  Cu  Cu50  1  0.92391100  0.77231500  0.44425200  1
  Cu  Cu51  1  0.92486700  0.27414300  0.94717000  1
