# generated using pymatgen
data_CuNiC5
_symmetry_space_group_name_H-M   'P 1'
_cell_length_a   4.91256900
_cell_length_b   6.15251900
_cell_length_c   10.64097100
_cell_angle_alpha   90.00000000
_cell_angle_beta   90.00000000
_cell_angle_gamma   90.00000000
_symmetry_Int_Tables_number   1
_chemical_formula_structural   CuNiC5
_chemical_formula_sum   'Cu4 Ni4 C20'
_cell_volume   321.61988070
_cell_formula_units_Z   4
loop_
 _symmetry_equiv_pos_site_id
 _symmetry_equiv_pos_as_xyz
  1  'x, y, z'
loop_
 _atom_site_type_symbol
 _atom_site_label
 _atom_site_symmetry_multiplicity
 _atom_site_fract_x
 _atom_site_fract_y
 _atom_site_fract_z
 _atom_site_occupancy
  C  C0  1  0.00000000  0.00000000  0.00000000  1
  C  C1  1  0.50000000  0.00000000  0.50000000  1
  C  C2  1  0.00000000  0.50000000  0.00000000  1
  C  C3  1  0.50000000  0.50000000  0.50000000  1
  Ni  Ni4  1  0.02123500  0.75000000  0.27571400  1
  Ni  Ni5  1  0.47876500  0.75000000  0.77571400  1
  Ni  Ni6  1  0.97876500  0.25000000  0.72428600  1
  Ni  Ni7  1  0.52123500  0.25000000  0.22428600  1
  Cu  Cu8  1  0.57575000  0.75000000  0.08878500  1
  Cu  Cu9  1  0.92425000  0.75000000  0.58878500  1
  Cu  Cu10  1  0.42425000  0.25000000  0.91121500  1
  Cu  Cu11  1  0.07575000  0.25000000  0.41121500  1
  C  C12  1  0.77172100  0.54208200  0.66283500  1
  C  C13  1  0.22827900  0.45791800  0.33716500  1
  C  C14  1  0.72827900  0.54208200  0.16283500  1
  C  C15  1  0.77172100  0.95791800  0.66283500  1
  C  C16  1  0.27172100  0.04208200  0.83716500  1
  C  C17  1  0.75438800  0.25000000  0.90235700  1
  C  C18  1  0.27172100  0.45791800  0.83716500  1
  C  C19  1  0.22827900  0.04208200  0.33716500  1
  C  C20  1  0.24561200  0.75000000  0.09764300  1
  C  C21  1  0.74561200  0.25000000  0.40235700  1
  C  C22  1  0.70527000  0.75000000  0.94680200  1
  C  C23  1  0.25438800  0.75000000  0.59764300  1
  C  C24  1  0.79473000  0.75000000  0.44680200  1
  C  C25  1  0.20527000  0.25000000  0.55319800  1
  C  C26  1  0.29473000  0.25000000  0.05319800  1
  C  C27  1  0.72827900  0.95791800  0.16283500  1
