# generated using pymatgen
data_Cu4NiC
_symmetry_space_group_name_H-M   'P 1'
_cell_length_a   8.99992100
_cell_length_b   9.15917000
_cell_length_c   13.67035834
_cell_angle_alpha   89.67029413
_cell_angle_beta   90.00000000
_cell_angle_gamma   90.00000000
_symmetry_Int_Tables_number   1
_chemical_formula_structural   Cu4NiC
_chemical_formula_sum   'Cu64 Ni16 C16'
_cell_volume   1126.85367484
_cell_formula_units_Z   16
loop_
 _symmetry_equiv_pos_site_id
 _symmetry_equiv_pos_as_xyz
  1  'x, y, z'
loop_
 _atom_site_type_symbol
 _atom_site_label
 _atom_site_symmetry_multiplicity
 _atom_site_fract_x
 _atom_site_fract_y
 _atom_site_fract_z
 _atom_site_occupancy
  C  C0  1  0.04091500  0.94768900  0.37700700  1
  C  C1  1  0.95908500  0.94768900  0.87700700  1
  C  C2  1  0.53459400  0.55290200  0.37043900  1
  C  C3  1  0.46540600  0.55290200  0.87043900  1
  C  C4  1  0.80084500  0.23182400  0.12791400  1
  C  C5  1  0.19915500  0.23182400  0.62791400  1
  C  C6  1  0.47704000  0.03966200  0.62714600  1
  C  C7  1  0.52296000  0.03966200  0.12714600  1
  C  C8  1  0.14674600  0.85690800  0.12363300  1
  C  C9  1  0.85325400  0.85690800  0.62363300  1
  C  C10  1  0.64513500  0.63848200  0.12450000  1
  C  C11  1  0.35486500  0.63848200  0.62450000  1
  C  C12  1  0.14430400  0.36470500  0.37450100  1
  C  C13  1  0.85569600  0.36470500  0.87450100  1
  C  C14  1  0.64628500  0.13869700  0.37573100  1
  C  C15  1  0.35371500  0.13869700  0.87573100  1
  Ni  Ni16  1  0.18508600  0.92268000  0.72514900  1
  Ni  Ni17  1  0.81491400  0.92268000  0.22514900  1
  Ni  Ni18  1  0.56492300  0.83844800  0.48865100  1
  Ni  Ni19  1  0.43507700  0.83844800  0.98865100  1
  Ni  Ni20  1  0.06407900  0.65883800  0.49048900  1
  Ni  Ni21  1  0.93592100  0.65883800  0.99048900  1
  Ni  Ni22  1  0.31494000  0.57472100  0.22150600  1
  Ni  Ni23  1  0.68506000  0.57472100  0.72150600  1
  Ni  Ni24  1  0.81636100  0.42636400  0.27710500  1
  Ni  Ni25  1  0.18363900  0.42636400  0.77710500  1
  Ni  Ni26  1  0.56303800  0.33893900  0.01101800  1
  Ni  Ni27  1  0.43696200  0.33893900  0.51101800  1
  Ni  Ni28  1  0.06525700  0.15966300  0.00985600  1
  Ni  Ni29  1  0.93474300  0.15966300  0.50985600  1
  Ni  Ni30  1  0.68563500  0.07767800  0.77642500  1
  Ni  Ni31  1  0.31436500  0.07767800  0.27642500  1
  Cu  Cu32  1  0.54904300  0.00154600  0.47415000  1
  Cu  Cu33  1  0.45095700  0.00154600  0.97415000  1
  Cu  Cu34  1  0.25412300  0.98356500  0.35198200  1
  Cu  Cu35  1  0.74587700  0.98356500  0.85198200  1
  Cu  Cu36  1  0.78238700  0.97800300  0.32663400  1
  Cu  Cu37  1  0.21761300  0.97800300  0.82663400  1
  Cu  Cu38  1  0.01805300  0.91940200  0.72250800  1
  Cu  Cu39  1  0.98194700  0.91940200  0.22250800  1
  Cu  Cu40  1  0.52585900  0.81413600  0.08040300  1
  Cu  Cu41  1  0.47414100  0.81413600  0.58040300  1
  Cu  Cu42  1  0.27856200  0.80115800  0.01283300  1
  Cu  Cu43  1  0.72143800  0.80115800  0.51283300  1
  Cu  Cu44  1  0.24624800  0.77344300  0.71820500  1
  Cu  Cu45  1  0.75375200  0.77344300  0.21820500  1
  Cu  Cu46  1  0.51578900  0.75693500  0.40525100  1
  Cu  Cu47  1  0.48421100  0.75693500  0.90525100  1
  Cu  Cu48  1  0.01933400  0.74432000  0.40631700  1
  Cu  Cu49  1  0.98066600  0.74432000  0.90631700  1
  Cu  Cu50  1  0.25704600  0.72830100  0.21810700  1
  Cu  Cu51  1  0.74295400  0.72830100  0.71810700  1
  Cu  Cu52  1  0.22250000  0.69517300  0.51528200  1
  Cu  Cu53  1  0.77750000  0.69517300  0.01528200  1
  Cu  Cu54  1  0.02516400  0.68835400  0.08065100  1
  Cu  Cu55  1  0.97483600  0.68835400  0.58065100  1
  Cu  Cu56  1  0.48545700  0.58456900  0.22427200  1
  Cu  Cu57  1  0.51454300  0.58456900  0.72427200  1
  Cu  Cu58  1  0.71490000  0.52090600  0.82569000  1
  Cu  Cu59  1  0.28510000  0.52090600  0.32569000  1
  Cu  Cu60  1  0.74967400  0.51512600  0.35198800  1
  Cu  Cu61  1  0.25032600  0.51512600  0.85198800  1
  Cu  Cu62  1  0.04976600  0.49870500  0.47251300  1
  Cu  Cu63  1  0.95023400  0.49870500  0.97251300  1
  Cu  Cu64  1  0.54684300  0.49979600  0.02572500  1
  Cu  Cu65  1  0.45315700  0.49979600  0.52572500  1
  Cu  Cu66  1  0.74056500  0.48206600  0.64634900  1
  Cu  Cu67  1  0.25943500  0.48206600  0.14634900  1
  Cu  Cu68  1  0.77819300  0.47489700  0.17397400  1
  Cu  Cu69  1  0.22180700  0.47489700  0.67397400  1
  Cu  Cu70  1  0.98110300  0.42116700  0.27954900  1
  Cu  Cu71  1  0.01889700  0.42116700  0.77954900  1
  Cu  Cu72  1  0.52534800  0.31156300  0.42001200  1
  Cu  Cu73  1  0.47465200  0.31156300  0.92001200  1
  Cu  Cu74  1  0.72266300  0.30207700  0.98832000  1
  Cu  Cu75  1  0.27733700  0.30207700  0.48832000  1
  Cu  Cu76  1  0.75820800  0.26969400  0.27868200  1
  Cu  Cu77  1  0.24179200  0.26969400  0.77868200  1
  Cu  Cu78  1  0.52147600  0.25293900  0.09582700  1
  Cu  Cu79  1  0.47852400  0.25293900  0.59582700  1
  Cu  Cu80  1  0.01209900  0.23758300  0.09426300  1
  Cu  Cu81  1  0.98790100  0.23758300  0.59426300  1
  Cu  Cu82  1  0.74257800  0.22953200  0.78164300  1
  Cu  Cu83  1  0.25742200  0.22953200  0.28164300  1
  Cu  Cu84  1  0.77813600  0.19950800  0.48682300  1
  Cu  Cu85  1  0.22186400  0.19950800  0.98682300  1
  Cu  Cu86  1  0.02526800  0.18706000  0.41831800  1
  Cu  Cu87  1  0.97473200  0.18706000  0.91831800  1
  Cu  Cu88  1  0.51609000  0.08169700  0.77728300  1
  Cu  Cu89  1  0.48391000  0.08169700  0.27728300  1
  Cu  Cu90  1  0.71569900  0.02159700  0.67409000  1
  Cu  Cu91  1  0.28430100  0.02159700  0.17409000  1
  Cu  Cu92  1  0.24770600  0.01996800  0.64979100  1
  Cu  Cu93  1  0.75229400  0.01996800  0.14979100  1
  Cu  Cu94  1  0.05195200  0.99611800  0.02257000  1
  Cu  Cu95  1  0.94804800  0.99611800  0.52257000  1
