# generated using pymatgen
data_Cu8NiC7
_symmetry_space_group_name_H-M   'P 1'
_cell_length_a   8.57638700
_cell_length_b   5.06067400
_cell_length_c   7.97213310
_cell_angle_alpha   82.59729411
_cell_angle_beta   90.00000000
_cell_angle_gamma   90.00000000
_symmetry_Int_Tables_number   1
_chemical_formula_structural   Cu8NiC7
_chemical_formula_sum   'Cu16 Ni2 C14'
_cell_volume   343.12494524
_cell_formula_units_Z   2
loop_
 _symmetry_equiv_pos_site_id
 _symmetry_equiv_pos_as_xyz
  1  'x, y, z'
loop_
 _atom_site_type_symbol
 _atom_site_label
 _atom_site_symmetry_multiplicity
 _atom_site_fract_x
 _atom_site_fract_y
 _atom_site_fract_z
 _atom_site_occupancy
  C  C0  1  0.44599100  0.94007300  0.31757600  1
  C  C1  1  0.05400900  0.94007300  0.31757600  1
  C  C2  1  0.75000000  0.57317700  0.57788500  1
  C  C3  1  0.25000000  0.42682300  0.42211500  1
  C  C4  1  0.94599100  0.05992700  0.68242400  1
  C  C5  1  0.55400900  0.05992700  0.68242400  1
  C  C6  1  0.75000000  0.66552400  0.94596300  1
  C  C7  1  0.15398200  0.56140000  0.91102600  1
  C  C8  1  0.34601800  0.56140000  0.91102600  1
  C  C9  1  0.75000000  0.69985500  0.15144400  1
  C  C10  1  0.25000000  0.30014500  0.84855600  1
  C  C11  1  0.84601800  0.43860000  0.08897400  1
  C  C12  1  0.65398200  0.43860000  0.08897400  1
  C  C13  1  0.25000000  0.33447600  0.05403700  1
  Ni  Ni14  1  0.25000000  0.43855300  0.93211800  1
  Ni  Ni15  1  0.75000000  0.56144700  0.06788200  1
  Cu  Cu16  1  0.43352100  0.93208000  0.82995400  1
  Cu  Cu17  1  0.06647900  0.93208000  0.82995400  1
  Cu  Cu18  1  0.75000000  0.90909700  0.75641700  1
  Cu  Cu19  1  0.91250600  0.81836400  0.50568700  1
  Cu  Cu20  1  0.58749400  0.81836400  0.50568700  1
  Cu  Cu21  1  0.25000000  0.61950800  0.57122200  1
  Cu  Cu22  1  0.39997200  0.61527200  0.27035400  1
  Cu  Cu23  1  0.10002800  0.61527200  0.27035400  1
  Cu  Cu24  1  0.60002800  0.38472800  0.72964600  1
  Cu  Cu25  1  0.89997200  0.38472800  0.72964600  1
  Cu  Cu26  1  0.75000000  0.38049200  0.42877800  1
  Cu  Cu27  1  0.41250600  0.18163600  0.49431300  1
  Cu  Cu28  1  0.08749400  0.18163600  0.49431300  1
  Cu  Cu29  1  0.25000000  0.09090300  0.24358300  1
  Cu  Cu30  1  0.93352100  0.06792000  0.17004600  1
  Cu  Cu31  1  0.56647900  0.06792000  0.17004600  1
