# generated using pymatgen
data_Cu4Ni3C17
_symmetry_space_group_name_H-M   'P 1'
_cell_length_a   6.92817300
_cell_length_b   4.98520600
_cell_length_c   10.23788269
_cell_angle_alpha   87.17433294
_cell_angle_beta   90.00000000
_cell_angle_gamma   90.00000000
_symmetry_Int_Tables_number   1
_chemical_formula_structural   Cu4Ni3C17
_chemical_formula_sum   'Cu4 Ni3 C17'
_cell_volume   353.16985344
_cell_formula_units_Z   1
loop_
 _symmetry_equiv_pos_site_id
 _symmetry_equiv_pos_as_xyz
  1  'x, y, z'
loop_
 _atom_site_type_symbol
 _atom_site_label
 _atom_site_symmetry_multiplicity
 _atom_site_fract_x
 _atom_site_fract_y
 _atom_site_fract_z
 _atom_site_occupancy
  C  C0  1  0.50000000  0.96894400  0.73127000  1
  Ni  Ni1  1  0.00000000  0.04562100  0.28131800  1
  Ni  Ni2  1  0.00000000  0.45466500  0.78341400  1
  Ni  Ni3  1  0.50000000  0.54607400  0.22288500  1
  Cu  Cu4  1  0.50000000  0.08983200  0.41315900  1
  Cu  Cu5  1  0.50000000  0.37783500  0.89152600  1
  Cu  Cu6  1  0.00000000  0.63122100  0.09117600  1
  Cu  Cu7  1  0.00000000  0.89973500  0.59965600  1
  C  C8  1  0.50000000  0.13516900  0.56041300  1
  C  C9  1  0.32714000  0.24149800  0.33998600  1
  C  C10  1  0.67286000  0.24149800  0.33998600  1
  C  C11  1  0.00000000  0.20613300  0.60101000  1
  C  C12  1  0.00000000  0.32489500  0.09750600  1
  C  C13  1  0.32697700  0.23846200  0.82109500  1
  C  C14  1  0.67302300  0.23846200  0.82109500  1
  C  C15  1  0.50000000  0.31485500  0.03847000  1
  C  C16  1  0.00000000  0.73944800  0.94834000  1
  C  C17  1  0.82713400  0.75361800  0.17346000  1
  C  C18  1  0.17286600  0.75361800  0.17346000  1
  C  C19  1  0.50000000  0.68317100  0.85959600  1
  C  C20  1  0.50000000  0.78789200  0.39433500  1
  C  C21  1  0.82434000  0.76392300  0.67872500  1
  C  C22  1  0.17566000  0.76392300  0.67872500  1
  C  C23  1  0.00000000  0.79951100  0.45939300  1
