# generated using pymatgen
data_Cu5(NiC7)2
_symmetry_space_group_name_H-M   'P 1'
_cell_length_a   9.11311500
_cell_length_b   5.09141000
_cell_length_c   10.36222361
_cell_angle_alpha   78.26406995
_cell_angle_beta   90.00000000
_cell_angle_gamma   90.00000000
_symmetry_Int_Tables_number   1
_chemical_formula_structural   Cu5(NiC7)2
_chemical_formula_sum   'Cu10 Ni4 C28'
_cell_volume   470.74196368
_cell_formula_units_Z   2
loop_
 _symmetry_equiv_pos_site_id
 _symmetry_equiv_pos_as_xyz
  1  'x, y, z'
loop_
 _atom_site_type_symbol
 _atom_site_label
 _atom_site_symmetry_multiplicity
 _atom_site_fract_x
 _atom_site_fract_y
 _atom_site_fract_z
 _atom_site_occupancy
  C  C0  1  0.91649700  0.49551100  0.26615600  1
  C  C1  1  0.57594400  0.74539000  0.49582200  1
  C  C2  1  0.41649700  0.50448900  0.73384400  1
  C  C3  1  0.07594400  0.25461000  0.50417800  1
  Ni  Ni4  1  0.75001700  0.23801800  0.50799300  1
  Ni  Ni5  1  0.74921200  0.75805900  0.99321200  1
  Ni  Ni6  1  0.24921200  0.24194100  0.00678800  1
  Ni  Ni7  1  0.25001700  0.76198200  0.49200700  1
  Cu  Cu8  1  0.91676800  0.24790600  0.00981100  1
  Cu  Cu9  1  0.92512800  0.75506100  0.49556200  1
  Cu  Cu10  1  0.72380000  0.99497300  0.26400900  1
  Cu  Cu11  1  0.58081300  0.24536500  0.99749700  1
  Cu  Cu12  1  0.75500100  0.50606200  0.73868500  1
  Cu  Cu13  1  0.42512800  0.24493900  0.50443800  1
  Cu  Cu14  1  0.41676800  0.75209400  0.99018900  1
  Cu  Cu15  1  0.22380000  0.00502700  0.73599100  1
  Cu  Cu16  1  0.25500100  0.49393800  0.26131500  1
  Cu  Cu17  1  0.08081300  0.75463500  0.00250300  1
  C  C18  1  0.89715000  0.11904000  0.38913500  1
  C  C19  1  0.88925500  0.87902900  0.11100400  1
  C  C20  1  0.77498800  0.87783500  0.60517400  1
  C  C21  1  0.73724000  0.11651800  0.89281200  1
  C  C22  1  0.91411400  0.61586100  0.90428300  1
  C  C23  1  0.90293900  0.40101600  0.60406900  1
  C  C24  1  0.59009900  0.13565000  0.40325900  1
  C  C25  1  0.77471500  0.62491800  0.38952000  1
  C  C26  1  0.58038900  0.87766800  0.09493100  1
  C  C27  1  0.76371700  0.37642600  0.11304300  1
  C  C28  1  0.60297500  0.59879500  0.88756300  1
  C  C29  1  0.58855400  0.36783200  0.60793000  1
  C  C30  1  0.38925500  0.12097100  0.88899600  1
  C  C31  1  0.39715000  0.88096000  0.61086500  1
  C  C32  1  0.27498800  0.12216500  0.39482600  1
  C  C33  1  0.40293900  0.59898400  0.39593100  1
  C  C34  1  0.23724000  0.88348200  0.10718800  1
  C  C35  1  0.41411400  0.38413900  0.09571700  1
  C  C36  1  0.08038900  0.12233200  0.90506900  1
  C  C37  1  0.27471500  0.37508200  0.61048000  1
  C  C38  1  0.09009900  0.86435000  0.59674100  1
  C  C39  1  0.26371700  0.62357400  0.88695700  1
  C  C40  1  0.08855400  0.63216800  0.39207000  1
  C  C41  1  0.10297500  0.40120500  0.11243700  1
