# generated using pymatgen
data_Cu2Ni3C14
_symmetry_space_group_name_H-M   'P 1'
_cell_length_a   19.80653700
_cell_length_b   11.92605900
_cell_length_c   16.74801430
_cell_angle_alpha   85.16169497
_cell_angle_beta   90.00000000
_cell_angle_gamma   90.00000000
_symmetry_Int_Tables_number   1
_chemical_formula_structural   Cu2Ni3C14
_chemical_formula_sum   'Cu16 Ni24 C112'
_cell_volume   3942.01741249
_cell_formula_units_Z   8
loop_
 _symmetry_equiv_pos_site_id
 _symmetry_equiv_pos_as_xyz
  1  'x, y, z'
loop_
 _atom_site_type_symbol
 _atom_site_label
 _atom_site_symmetry_multiplicity
 _atom_site_fract_x
 _atom_site_fract_y
 _atom_site_fract_z
 _atom_site_occupancy
  C  C0  1  0.07897600  0.67978500  0.22916000  1
  C  C1  1  0.19648600  0.76595700  0.38179400  1
  C  C2  1  0.17647600  0.75840400  0.71196000  1
  C  C3  1  0.81439400  0.23296200  0.07068300  1
  C  C4  1  0.31439400  0.26703800  0.42931700  1
  C  C5  1  0.30351400  0.26595700  0.88179400  1
  C  C6  1  0.82352400  0.24159600  0.28804000  1
  C  C7  1  0.42102400  0.17978500  0.72916000  1
  C  C8  1  0.92102400  0.32021500  0.77084000  1
  C  C9  1  0.67647600  0.74159600  0.78804000  1
  C  C10  1  0.68560600  0.73296200  0.57068300  1
  C  C11  1  0.32352400  0.25840400  0.21196000  1
  C  C12  1  0.69648600  0.73404300  0.11820600  1
  C  C13  1  0.57897600  0.82021500  0.27084000  1
  C  C14  1  0.80351400  0.23404300  0.61820600  1
  C  C15  1  0.18560600  0.76703800  0.92931700  1
  Ni  Ni16  1  0.07622400  0.24258600  0.13359000  1
  Ni  Ni17  1  0.60758800  0.34629100  0.93064200  1
  Ni  Ni18  1  0.08939100  0.25349500  0.52416700  1
  Ni  Ni19  1  0.42529300  0.62860200  0.66189200  1
  Ni  Ni20  1  0.88757600  0.64797100  0.44434800  1
  Ni  Ni21  1  0.59202300  0.23690700  0.44784000  1
  Ni  Ni22  1  0.11242400  0.35202900  0.55565200  1
  Ni  Ni23  1  0.41060900  0.75349500  0.02416700  1
  Ni  Ni24  1  0.92377600  0.75741400  0.86641000  1
  Ni  Ni25  1  0.10758800  0.15370900  0.56935800  1
  Ni  Ni26  1  0.90797700  0.73690700  0.94784000  1
  Ni  Ni27  1  0.92529300  0.87139800  0.83810800  1
  Ni  Ni28  1  0.38757600  0.85202900  0.05565200  1
  Ni  Ni29  1  0.57470700  0.37139800  0.33810800  1
  Ni  Ni30  1  0.40797700  0.76309300  0.55216000  1
  Ni  Ni31  1  0.09202300  0.26309300  0.05216000  1
  Ni  Ni32  1  0.39241200  0.65370900  0.06935800  1
  Ni  Ni33  1  0.89241200  0.84629100  0.43064200  1
  Ni  Ni34  1  0.58939100  0.24650500  0.97583300  1
  Ni  Ni35  1  0.42377600  0.74258600  0.63359000  1
  Ni  Ni36  1  0.57622400  0.25741400  0.36641000  1
  Ni  Ni37  1  0.61242400  0.14797100  0.94434800  1
  Ni  Ni38  1  0.91060900  0.74650500  0.47583300  1
  Ni  Ni39  1  0.07470700  0.12860200  0.16189200  1
  Cu  Cu40  1  0.34524700  0.66529200  0.15338300  1
  Cu  Cu41  1  0.60804200  0.35087200  0.49966400  1
  Cu  Cu42  1  0.84524700  0.83470800  0.34661700  1
  Cu  Cu43  1  0.65855000  0.16279800  0.85841300  1
  Cu  Cu44  1  0.10804200  0.14912800  0.00033600  1
  Cu  Cu45  1  0.09158500  0.03237000  0.09512700  1
  Cu  Cu46  1  0.39195800  0.64912800  0.50033600  1
  Cu  Cu47  1  0.59158500  0.46763000  0.40487300  1
  Cu  Cu48  1  0.84145000  0.66279800  0.35841300  1
  Cu  Cu49  1  0.40841500  0.53237000  0.59512700  1
  Cu  Cu50  1  0.90841500  0.96763000  0.90487300  1
  Cu  Cu51  1  0.15855000  0.33720200  0.64158700  1
  Cu  Cu52  1  0.89195800  0.85087200  0.99966400  1
  Cu  Cu53  1  0.15475300  0.16529200  0.65338300  1
  Cu  Cu54  1  0.34145000  0.83720200  0.14158700  1
  Cu  Cu55  1  0.65475300  0.33470800  0.84661700  1
  C  C56  1  0.58432400  0.47572700  0.95220700  1
  C  C57  1  0.40408000  0.89139500  0.50292600  1
  C  C58  1  0.50064800  0.05382400  0.79272600  1
  C  C59  1  0.07315000  0.78374700  0.38072500  1
  C  C60  1  0.33019500  0.08637100  0.81627600  1
  C  C61  1  0.92447900  0.19346600  0.02470400  1
  C  C62  1  0.91567600  0.97572700  0.45220700  1
  C  C63  1  0.05877200  0.34628000  0.19320600  1
  C  C64  1  0.77558900  0.06413800  0.02320400  1
  C  C65  1  0.22441100  0.93586200  0.97679600  1
  C  C66  1  0.55823500  0.41827800  0.24292300  1
  C  C67  1  0.80891300  0.74151700  0.16904300  1
  C  C68  1  0.92685000  0.21625300  0.61927500  1
  C  C69  1  0.42685000  0.28374700  0.88072500  1
  C  C70  1  0.44176500  0.58172200  0.75707700  1
  C  C71  1  0.00064800  0.44617600  0.70727400  1
  C  C72  1  0.49255000  0.69074000  0.30951500  1
  C  C73  1  0.77916600  0.72967500  0.66477000  1
  C  C74  1  0.07552100  0.80653400  0.97529600  1
  C  C75  1  0.13445000  0.63788600  0.83441000  1
  C  C76  1  0.95828000  0.74407400  0.55983400  1
  C  C77  1  0.59592000  0.10860500  0.49707400  1
  C  C78  1  0.16980500  0.58637100  0.31627600  1
  C  C79  1  0.36066800  0.41091700  0.29055000  1
  C  C80  1  0.08432400  0.02427300  0.54779300  1
  C  C81  1  0.99255000  0.80926000  0.19048500  1
  C  C82  1  0.86555000  0.36211400  0.16559000  1
  C  C83  1  0.25457300  0.38537900  0.13510200  1
  C  C84  1  0.22083400  0.27032500  0.33523000  1
  C  C85  1  0.36555000  0.13788600  0.33441000  1
  C  C86  1  0.24542700  0.88537900  0.63510200  1
  C  C87  1  0.42447900  0.30653400  0.47529600  1
  C  C88  1  0.90408000  0.60860500  0.99707400  1
  C  C89  1  0.72441100  0.56413800  0.52320400  1
  C  C90  1  0.86066800  0.08908300  0.20945000  1
  C  C91  1  0.99935200  0.55382400  0.29272600  1
  C  C92  1  0.29223200  0.45726500  0.89577500  1
  C  C93  1  0.09592000  0.39139500  0.00292600  1
  C  C94  1  0.55877200  0.15372000  0.30679400  1
  C  C95  1  0.09609300  0.48288900  0.51594900  1
  C  C96  1  0.63933200  0.58908300  0.70945000  1
  C  C97  1  0.75457300  0.11462100  0.36489800  1
  C  C98  1  0.83597700  0.17027500  0.78334900  1
  C  C99  1  0.13933200  0.91091700  0.79055000  1
  C  C100  1  0.59609300  0.01711100  0.98405100  1
  C  C101  1  0.44122800  0.84628000  0.69320600  1
  C  C102  1  0.72083400  0.22967500  0.16477000  1
  C  C103  1  0.70776800  0.54273500  0.10422500  1
  C  C104  1  0.45828000  0.75592600  0.94016600  1
  C  C105  1  0.05823500  0.08172200  0.25707700  1
  C  C106  1  0.50745000  0.30926000  0.69048500  1
  C  C107  1  0.69108700  0.24151700  0.66904300  1
  C  C108  1  0.63445000  0.86211400  0.66559000  1
  C  C109  1  0.90390700  0.51711100  0.48405100  1
  C  C110  1  0.57315000  0.71625300  0.11927500  1
  C  C111  1  0.30891300  0.75848300  0.33095700  1
  C  C112  1  0.94176500  0.91827800  0.74292300  1
  C  C113  1  0.54172000  0.24407400  0.05983400  1
  C  C114  1  0.94122800  0.65372000  0.80679400  1
  C  C115  1  0.49935200  0.94617600  0.20727400  1
  C  C116  1  0.24171100  0.60434700  0.67716200  1
  C  C117  1  0.74542700  0.61462100  0.86489800  1
  C  C118  1  0.75828900  0.39565300  0.32283800  1
  C  C119  1  0.66980500  0.91362900  0.18372400  1
  C  C120  1  0.20776800  0.95726500  0.39577500  1
  C  C121  1  0.27558900  0.43586200  0.47679600  1
  C  C122  1  0.40390700  0.98288900  0.01594900  1
  C  C123  1  0.74171100  0.89565300  0.82283800  1
  C  C124  1  0.41567600  0.52427300  0.04779300  1
  C  C125  1  0.33597700  0.32972500  0.71665100  1
  C  C126  1  0.04172000  0.25592600  0.44016600  1
  C  C127  1  0.79223200  0.04273500  0.60422500  1
  C  C128  1  0.25828900  0.10434700  0.17716200  1
  C  C129  1  0.57552100  0.69346600  0.52470400  1
  C  C130  1  0.66402300  0.67027500  0.28334900  1
  C  C131  1  0.19108700  0.25848300  0.83095700  1
  C  C132  1  0.16402300  0.82972500  0.21665100  1
  C  C133  1  0.00745000  0.19074000  0.80951500  1
  C  C134  1  0.27916600  0.77032500  0.83523000  1
  C  C135  1  0.83019500  0.41362900  0.68372400  1
  C  C136  1  0.39402800  0.24798400  0.15461700  1
  C  C137  1  0.29241200  0.20544400  0.97611100  1
  C  C138  1  0.60597200  0.75201600  0.84538300  1
  C  C139  1  0.21383700  0.66877300  0.00052200  1
  C  C140  1  0.90469900  0.38223700  0.85594600  1
  C  C141  1  0.09530100  0.61776300  0.14405400  1
  C  C142  1  0.10597200  0.74798400  0.65461700  1
  C  C143  1  0.79241200  0.29455600  0.52388900  1
  C  C144  1  0.78616300  0.33122700  0.99947800  1
  C  C145  1  0.89402800  0.25201600  0.34538300  1
  C  C146  1  0.28616300  0.16877300  0.50052200  1
  C  C147  1  0.71383700  0.83122700  0.49947800  1
  C  C148  1  0.70758800  0.79455600  0.02388900  1
  C  C149  1  0.20758800  0.70544400  0.47611100  1
  C  C150  1  0.59530100  0.88223700  0.35594600  1
  C  C151  1  0.40469900  0.11776300  0.64405400  1
