# generated using pymatgen
data_Cu9(NiC2)2
_symmetry_space_group_name_H-M   'P 1'
_cell_length_a   8.14637305
_cell_length_b   10.34980907
_cell_length_c   9.36371721
_cell_angle_alpha   89.99255933
_cell_angle_beta   102.96141592
_cell_angle_gamma   90.01257168
_symmetry_Int_Tables_number   1
_chemical_formula_structural   Cu9(NiC2)2
_chemical_formula_sum   'Cu36 Ni8 C16'
_cell_volume   769.37179176
_cell_formula_units_Z   4
loop_
 _symmetry_equiv_pos_site_id
 _symmetry_equiv_pos_as_xyz
  1  'x, y, z'
loop_
 _atom_site_type_symbol
 _atom_site_label
 _atom_site_symmetry_multiplicity
 _atom_site_fract_x
 _atom_site_fract_y
 _atom_site_fract_z
 _atom_site_occupancy
  C  C0  1  0.42673500  0.37500400  0.78347800  1
  C  C1  1  0.42673300  0.87500800  0.78347200  1
  C  C2  1  0.57326600  0.12499600  0.21652300  1
  C  C3  1  0.57326900  0.62499700  0.21652500  1
  C  C4  1  0.08716400  0.62498700  0.22349700  1
  C  C5  1  0.91284300  0.87500900  0.77652600  1
  C  C6  1  0.08716300  0.12499400  0.22347600  1
  C  C7  1  0.91284100  0.37500800  0.77652300  1
  C  C8  1  0.16570500  0.04701900  0.49268500  1
  C  C9  1  0.16570700  0.54701100  0.49269200  1
  C  C10  1  0.16572300  0.20299100  0.49268000  1
  C  C11  1  0.16572200  0.70299100  0.49268800  1
  C  C12  1  0.83427300  0.29700800  0.50731900  1
  C  C13  1  0.83427700  0.79701300  0.50731200  1
  C  C14  1  0.83429100  0.45298200  0.50731300  1
  C  C15  1  0.83429400  0.95298300  0.50730600  1
  Ni  Ni16  1  0.15698100  0.12500100  0.88575000  1
  Ni  Ni17  1  0.15697900  0.62499400  0.88574900  1
  Ni  Ni18  1  0.84301800  0.37500000  0.11424700  1
  Ni  Ni19  1  0.84302000  0.87500500  0.11425300  1
  Ni  Ni20  1  0.33173900  0.37499700  0.34476100  1
  Ni  Ni21  1  0.33173700  0.87500600  0.34476100  1
  Ni  Ni22  1  0.66826200  0.12500200  0.65523900  1
  Ni  Ni23  1  0.66826300  0.62499400  0.65523800  1
  Cu  Cu24  1  0.10459200  0.12499900  0.44833600  1
  Cu  Cu25  1  0.10459200  0.62499600  0.44835100  1
  Cu  Cu26  1  0.89540600  0.37500100  0.55166000  1
  Cu  Cu27  1  0.89540700  0.87500300  0.55165900  1
  Cu  Cu28  1  0.06696800  0.12496300  0.00755300  1
  Cu  Cu29  1  0.06697500  0.62495900  0.00756200  1
  Cu  Cu30  1  0.93302800  0.37503600  0.99244400  1
  Cu  Cu31  1  0.93303000  0.87504200  0.99244200  1
  Cu  Cu32  1  0.33984800  0.12494500  0.93508200  1
  Cu  Cu33  1  0.33984700  0.62493900  0.93507700  1
  Cu  Cu34  1  0.66015000  0.37506000  0.06491700  1
  Cu  Cu35  1  0.66015200  0.87505700  0.06492200  1
  Cu  Cu36  1  0.25710800  0.37497100  0.47516800  1
  Cu  Cu37  1  0.25710400  0.87497900  0.47516800  1
  Cu  Cu38  1  0.74288900  0.12503300  0.52482900  1
  Cu  Cu39  1  0.74289200  0.62501800  0.52482900  1
  Cu  Cu40  1  0.48489100  0.12499600  0.62372800  1
  Cu  Cu41  1  0.48489200  0.62499200  0.62372700  1
  Cu  Cu42  1  0.51511000  0.37500000  0.37627100  1
  Cu  Cu43  1  0.51510800  0.87501300  0.37627400  1
  Cu  Cu44  1  0.10177300  0.00765200  0.79204800  1
  Cu  Cu45  1  0.10176300  0.50765200  0.79204300  1
  Cu  Cu46  1  0.10193200  0.24236600  0.79206300  1
  Cu  Cu47  1  0.10192800  0.74236300  0.79206500  1
  Cu  Cu48  1  0.89806900  0.25763500  0.20793400  1
  Cu  Cu49  1  0.89807100  0.75763500  0.20793300  1
  Cu  Cu50  1  0.89822600  0.49234800  0.20795100  1
  Cu  Cu51  1  0.89823700  0.99234900  0.20795400  1
  Cu  Cu52  1  0.26919300  0.25799300  0.25032900  1
  Cu  Cu53  1  0.26918900  0.75799500  0.25033500  1
  Cu  Cu54  1  0.26922300  0.49201400  0.25035100  1
  Cu  Cu55  1  0.26922600  0.99201800  0.25034500  1
  Cu  Cu56  1  0.73077800  0.00798500  0.74964900  1
  Cu  Cu57  1  0.73077700  0.50798300  0.74965400  1
  Cu  Cu58  1  0.73080800  0.24200700  0.74967100  1
  Cu  Cu59  1  0.73081000  0.74200500  0.74966500  1
