# generated using pymatgen
data_CuNi4C3
_symmetry_space_group_name_H-M   'P 1'
_cell_length_a   6.16141700
_cell_length_b   10.85760000
_cell_length_c   12.52220300
_cell_angle_alpha   90.00000000
_cell_angle_beta   90.00000000
_cell_angle_gamma   90.00000000
_symmetry_Int_Tables_number   1
_chemical_formula_structural   CuNi4C3
_chemical_formula_sum   'Cu8 Ni32 C24'
_cell_volume   837.71285600
_cell_formula_units_Z   8
loop_
 _symmetry_equiv_pos_site_id
 _symmetry_equiv_pos_as_xyz
  1  'x, y, z'
loop_
 _atom_site_type_symbol
 _atom_site_label
 _atom_site_symmetry_multiplicity
 _atom_site_fract_x
 _atom_site_fract_y
 _atom_site_fract_z
 _atom_site_occupancy
  C  C0  1  0.80134500  0.17244400  0.38612100  1
  C  C1  1  0.69865500  0.17244400  0.88612100  1
  C  C2  1  0.60137100  0.46538400  0.60575400  1
  C  C3  1  0.89862900  0.46538400  0.10575400  1
  C  C4  1  0.30134500  0.67244400  0.11387900  1
  C  C5  1  0.19865500  0.67244400  0.61387900  1
  C  C6  1  0.39862900  0.96538400  0.39424600  1
  C  C7  1  0.10137100  0.96538400  0.89424600  1
  C  C8  1  0.99080000  0.00453500  0.12209500  1
  C  C9  1  0.50920000  0.00453500  0.62209500  1
  C  C10  1  0.23581200  0.24684600  0.25813900  1
  C  C11  1  0.26418800  0.24684600  0.75813900  1
  C  C12  1  0.49080000  0.50453500  0.37790500  1
  C  C13  1  0.00920000  0.50453500  0.87790500  1
  C  C14  1  0.73581200  0.74684600  0.24186100  1
  C  C15  1  0.76418800  0.74684600  0.74186100  1
  C  C16  1  0.34942700  0.24134600  0.50465600  1
  C  C17  1  0.15057300  0.24134600  0.00465600  1
  C  C18  1  0.99127100  0.50223800  0.31530000  1
  C  C19  1  0.50872900  0.50223800  0.81530000  1
  C  C20  1  0.84942700  0.74134600  0.99534400  1
  C  C21  1  0.65057300  0.74134600  0.49534400  1
  C  C22  1  0.49127100  0.00223800  0.18470000  1
  C  C23  1  0.00872900  0.00223800  0.68470000  1
  Ni  Ni24  1  0.81625700  0.03029100  0.61086400  1
  Ni  Ni25  1  0.68374300  0.03029100  0.11086400  1
  Ni  Ni26  1  0.06047400  0.10402600  0.77023600  1
  Ni  Ni27  1  0.43952600  0.10402600  0.27023600  1
  Ni  Ni28  1  0.01044300  0.11913500  0.99773100  1
  Ni  Ni29  1  0.48955700  0.11913500  0.49773100  1
  Ni  Ni30  1  0.18102700  0.23938200  0.41172800  1
  Ni  Ni31  1  0.31897300  0.23938200  0.91172800  1
  Ni  Ni32  1  0.28539600  0.24382200  0.10771600  1
  Ni  Ni33  1  0.21460400  0.24382200  0.60771600  1
  Ni  Ni34  1  0.50473800  0.35103800  0.49611100  1
  Ni  Ni35  1  0.99526200  0.35103800  0.99611100  1
  Ni  Ni36  1  0.03331200  0.38837000  0.24231500  1
  Ni  Ni37  1  0.46668800  0.38837000  0.74231500  1
  Ni  Ni38  1  0.79789900  0.48154400  0.39040600  1
  Ni  Ni39  1  0.70210100  0.48154400  0.89040600  1
  Ni  Ni40  1  0.18374300  0.53029100  0.38913600  1
  Ni  Ni41  1  0.31625700  0.53029100  0.88913600  1
  Ni  Ni42  1  0.93952600  0.60402600  0.22976400  1
  Ni  Ni43  1  0.56047400  0.60402600  0.72976400  1
  Ni  Ni44  1  0.51044300  0.61913500  0.50226900  1
  Ni  Ni45  1  0.98955700  0.61913500  0.00226900  1
  Ni  Ni46  1  0.68102700  0.73938200  0.08827200  1
  Ni  Ni47  1  0.81897300  0.73938200  0.58827200  1
  Ni  Ni48  1  0.78539600  0.74382200  0.39228400  1
  Ni  Ni49  1  0.71460400  0.74382200  0.89228400  1
  Ni  Ni50  1  0.00473800  0.85103800  0.00388900  1
  Ni  Ni51  1  0.49526200  0.85103800  0.50388900  1
  Ni  Ni52  1  0.96668800  0.88837000  0.75768500  1
  Ni  Ni53  1  0.53331200  0.88837000  0.25768500  1
  Ni  Ni54  1  0.29789900  0.98154400  0.10959400  1
  Ni  Ni55  1  0.20210100  0.98154400  0.60959400  1
  Cu  Cu56  1  0.95859800  0.12974500  0.25921700  1
  Cu  Cu57  1  0.54140200  0.12974500  0.75921700  1
  Cu  Cu58  1  0.48616500  0.37985300  0.27028300  1
  Cu  Cu59  1  0.01383500  0.37985300  0.77028300  1
  Cu  Cu60  1  0.45859800  0.62974500  0.24078300  1
  Cu  Cu61  1  0.04140200  0.62974500  0.74078300  1
  Cu  Cu62  1  0.98616500  0.87985300  0.22971700  1
  Cu  Cu63  1  0.51383500  0.87985300  0.72971700  1
