# generated using pymatgen
data_Cu6Ni2C
_symmetry_space_group_name_H-M   'P 1'
_cell_length_a   5.23792000
_cell_length_b   7.07798100
_cell_length_c   14.77395400
_cell_angle_alpha   90.00000000
_cell_angle_beta   90.00000000
_cell_angle_gamma   90.00000000
_symmetry_Int_Tables_number   1
_chemical_formula_structural   Cu6Ni2C
_chemical_formula_sum   'Cu24 Ni8 C4'
_cell_volume   547.72806719
_cell_formula_units_Z   4
loop_
 _symmetry_equiv_pos_site_id
 _symmetry_equiv_pos_as_xyz
  1  'x, y, z'
loop_
 _atom_site_type_symbol
 _atom_site_label
 _atom_site_symmetry_multiplicity
 _atom_site_fract_x
 _atom_site_fract_y
 _atom_site_fract_z
 _atom_site_occupancy
  C  C0  1  0.75000000  0.62358500  0.50000000  1
  C  C1  1  0.25000000  0.37641500  0.50000000  1
  C  C2  1  0.25000000  0.87641500  0.00000000  1
  C  C3  1  0.75000000  0.12358500  0.00000000  1
  Ni  Ni4  1  0.23025600  0.78096700  0.64759600  1
  Ni  Ni5  1  0.73025600  0.21903300  0.64759600  1
  Ni  Ni6  1  0.73025600  0.71903300  0.85240400  1
  Ni  Ni7  1  0.23025600  0.28096700  0.85240400  1
  Ni  Ni8  1  0.76974400  0.71903300  0.14759600  1
  Ni  Ni9  1  0.26974400  0.28096700  0.14759600  1
  Ni  Ni10  1  0.26974400  0.78096700  0.35240400  1
  Ni  Ni11  1  0.76974400  0.21903300  0.35240400  1
  Cu  Cu12  1  0.90851300  0.39966200  0.57900600  1
  Cu  Cu13  1  0.40851300  0.60033800  0.57900600  1
  Cu  Cu14  1  0.93743200  0.82099400  0.57966800  1
  Cu  Cu15  1  0.43743200  0.17900600  0.57966800  1
  Cu  Cu16  1  0.10771200  0.13252000  0.76212700  1
  Cu  Cu17  1  0.60771200  0.86748000  0.76212700  1
  Cu  Cu18  1  0.10771200  0.63252000  0.73787300  1
  Cu  Cu19  1  0.60771200  0.36748000  0.73787300  1
  Cu  Cu20  1  0.43743200  0.67900600  0.92033200  1
  Cu  Cu21  1  0.93743200  0.32099400  0.92033200  1
  Cu  Cu22  1  0.90851300  0.89966200  0.92099400  1
  Cu  Cu23  1  0.40851300  0.10033800  0.92099400  1
  Cu  Cu24  1  0.59148700  0.89966200  0.07900600  1
  Cu  Cu25  1  0.09148700  0.10033800  0.07900600  1
  Cu  Cu26  1  0.06256800  0.67900600  0.07966800  1
  Cu  Cu27  1  0.56256800  0.32099400  0.07966800  1
  Cu  Cu28  1  0.39228800  0.63252000  0.26212700  1
  Cu  Cu29  1  0.89228800  0.36748000  0.26212700  1
  Cu  Cu30  1  0.89228800  0.86748000  0.23787300  1
  Cu  Cu31  1  0.39228800  0.13252000  0.23787300  1
  Cu  Cu32  1  0.56256800  0.82099400  0.42033200  1
  Cu  Cu33  1  0.06256800  0.17900600  0.42033200  1
  Cu  Cu34  1  0.09148700  0.60033800  0.42099400  1
  Cu  Cu35  1  0.59148700  0.39966200  0.42099400  1
