# generated using pymatgen
data_Cu(NiC4)3
_symmetry_space_group_name_H-M   'P 1'
_cell_length_a   5.16070289
_cell_length_b   9.84308773
_cell_length_c   5.90949853
_cell_angle_alpha   89.99997997
_cell_angle_beta   90.00003113
_cell_angle_gamma   100.36856754
_symmetry_Int_Tables_number   1
_chemical_formula_structural   Cu(NiC4)3
_chemical_formula_sum   'Cu2 Ni6 C24'
_cell_volume   295.28434653
_cell_formula_units_Z   2
loop_
 _symmetry_equiv_pos_site_id
 _symmetry_equiv_pos_as_xyz
  1  'x, y, z'
loop_
 _atom_site_type_symbol
 _atom_site_label
 _atom_site_symmetry_multiplicity
 _atom_site_fract_x
 _atom_site_fract_y
 _atom_site_fract_z
 _atom_site_occupancy
  C  C0  1  0.49993500  0.50004600  0.99998300  1
  C  C1  1  0.99993500  0.00004800  0.49998400  1
  C  C2  1  0.00006400  0.99995500  0.99998200  1
  C  C3  1  0.50006200  0.49995500  0.49998300  1
  C  C4  1  0.24999800  0.25000100  0.25025700  1
  C  C5  1  0.75000000  0.75000100  0.75026200  1
  C  C6  1  0.25000000  0.25000000  0.75010100  1
  C  C7  1  0.74999800  0.75000200  0.25008500  1
  Ni  Ni8  1  0.25004900  0.74995500  0.50094600  1
  Ni  Ni9  1  0.99922800  0.49916000  0.24859100  1
  Ni  Ni10  1  0.50075700  0.00082700  0.24858700  1
  Ni  Ni11  1  0.75000600  0.25000500  0.00100300  1
  Ni  Ni12  1  0.49923000  0.99918800  0.74858400  1
  Ni  Ni13  1  0.00075900  0.50082700  0.74858600  1
  Cu  Cu14  1  0.74999900  0.25000000  0.50080800  1
  Cu  Cu15  1  0.24999800  0.75000700  0.00080700  1
  C  C16  1  0.39563000  0.12174200  0.49980700  1
  C  C17  1  0.89562000  0.62173200  0.99981100  1
  C  C18  1  0.10437300  0.37826500  0.49980700  1
  C  C19  1  0.60437200  0.87826800  0.99981200  1
  C  C20  1  0.39455200  0.12126000  0.99869800  1
  C  C21  1  0.89454700  0.62124900  0.49870100  1
  C  C22  1  0.10545200  0.37874700  0.99870400  1
  C  C23  1  0.60544200  0.87874900  0.49869500  1
  C  C24  1  0.85361500  0.12903500  0.75021300  1
  C  C25  1  0.35360100  0.62903000  0.25021700  1
  C  C26  1  0.85634900  0.12938600  0.25163700  1
  C  C27  1  0.35634200  0.62937800  0.75164000  1
  C  C28  1  0.64364900  0.37062200  0.25163900  1
  C  C29  1  0.14365600  0.87062100  0.75163700  1
  C  C30  1  0.64638600  0.37097100  0.75021400  1
  C  C31  1  0.14639400  0.87097000  0.25021800  1
