# generated using pymatgen
data_Cu3NiC4
_symmetry_space_group_name_H-M   'P 1'
_cell_length_a   5.16059511
_cell_length_b   5.16059511
_cell_length_c   10.36464221
_cell_angle_alpha   80.28443432
_cell_angle_beta   80.28443432
_cell_angle_gamma   33.58012055
_symmetry_Int_Tables_number   1
_chemical_formula_structural   Cu3NiC4
_chemical_formula_sum   'Cu6 Ni2 C8'
_cell_volume   150.28143935
_cell_formula_units_Z   2
loop_
 _symmetry_equiv_pos_site_id
 _symmetry_equiv_pos_as_xyz
  1  'x, y, z'
loop_
 _atom_site_type_symbol
 _atom_site_label
 _atom_site_symmetry_multiplicity
 _atom_site_fract_x
 _atom_site_fract_y
 _atom_site_fract_z
 _atom_site_occupancy
  C  C0  1  0.25285400  0.25285400  0.88465100  1
  C  C1  1  0.50000000  0.50000000  0.00000000  1
  C  C2  1  0.50000000  0.50000000  0.50000000  1
  C  C3  1  0.00111800  0.00111800  0.25096800  1
  C  C4  1  0.74714600  0.74714600  0.11534900  1
  C  C5  1  0.99888200  0.99888200  0.74903200  1
  C  C6  1  0.26077600  0.26077600  0.38207300  1
  C  C7  1  0.73922400  0.73922400  0.61792700  1
  Ni  Ni8  1  0.12333900  0.12333900  0.56780000  1
  Ni  Ni9  1  0.87666100  0.87666100  0.43220000  1
  Cu  Cu10  1  0.12898400  0.12898400  0.06108600  1
  Cu  Cu11  1  0.37907900  0.37907900  0.17590900  1
  Cu  Cu12  1  0.37335400  0.37335400  0.70478900  1
  Cu  Cu13  1  0.87101600  0.87101600  0.93891400  1
  Cu  Cu14  1  0.62092100  0.62092100  0.82409100  1
  Cu  Cu15  1  0.62664600  0.62664600  0.29521100  1
