# generated using pymatgen
data_Cu(NiC)4
_symmetry_space_group_name_H-M   'P 1'
_cell_length_a   5.11042800
_cell_length_b   13.06212100
_cell_length_c   13.21788428
_cell_angle_alpha   60.85434334
_cell_angle_beta   90.00000000
_cell_angle_gamma   90.00000000
_symmetry_Int_Tables_number   1
_chemical_formula_structural   Cu(NiC)4
_chemical_formula_sum   'Cu8 Ni32 C32'
_cell_volume   770.61659099
_cell_formula_units_Z   8
loop_
 _symmetry_equiv_pos_site_id
 _symmetry_equiv_pos_as_xyz
  1  'x, y, z'
loop_
 _atom_site_type_symbol
 _atom_site_label
 _atom_site_symmetry_multiplicity
 _atom_site_fract_x
 _atom_site_fract_y
 _atom_site_fract_z
 _atom_site_occupancy
  C  C0  1  0.73455400  0.16542400  0.66302000  1
  C  C1  1  0.73297900  0.41288500  0.41800700  1
  C  C2  1  0.23297900  0.08711500  0.58199300  1
  C  C3  1  0.71733100  0.67136600  0.16334000  1
  C  C4  1  0.23455400  0.33457600  0.33698000  1
  C  C5  1  0.27352600  0.83268800  0.08330900  1
  C  C6  1  0.77352600  0.66731200  0.91669100  1
  C  C7  1  0.78266900  0.17136600  0.16334000  1
  C  C8  1  0.21733100  0.82863400  0.83666000  1
  C  C9  1  0.22647400  0.33268800  0.08330900  1
  C  C10  1  0.72647400  0.16731200  0.91669100  1
  C  C11  1  0.76544600  0.66542400  0.66302000  1
  C  C12  1  0.28266900  0.32863400  0.83666000  1
  C  C13  1  0.76702100  0.91288500  0.41800700  1
  C  C14  1  0.26702100  0.58711500  0.58199300  1
  C  C15  1  0.26544600  0.83457600  0.33698000  1
  C  C16  1  0.28034300  0.32280100  0.57146200  1
  C  C17  1  0.78034300  0.17719900  0.42853800  1
  C  C18  1  0.22472700  0.60598700  0.07141200  1
  C  C19  1  0.72472700  0.89401300  0.92858800  1
  C  C20  1  0.27527300  0.10598700  0.07141200  1
  C  C21  1  0.77527300  0.39401300  0.92858800  1
  C  C22  1  0.21965700  0.82280100  0.57146200  1
  C  C23  1  0.71965700  0.67719900  0.42853800  1
  C  C24  1  0.21567800  0.07934600  0.83397300  1
  C  C25  1  0.21156200  0.58509500  0.33304500  1
  C  C26  1  0.28843800  0.08509500  0.33304500  1
  C  C27  1  0.71567800  0.42065400  0.16602700  1
  C  C28  1  0.28432200  0.57934600  0.83397300  1
  C  C29  1  0.71156200  0.91490500  0.66695500  1
  C  C30  1  0.78843800  0.41490500  0.66695500  1
  C  C31  1  0.78432200  0.92065400  0.16602700  1
  Ni  Ni32  1  0.90916200  0.07403900  0.84379300  1
  Ni  Ni33  1  0.67364600  0.35122100  0.60436500  1
  Ni  Ni34  1  0.30027000  0.14340000  0.70492200  1
  Ni  Ni35  1  0.90486700  0.58794100  0.33847500  1
  Ni  Ni36  1  0.31116400  0.45646300  0.39218800  1
  Ni  Ni37  1  0.81116400  0.04353700  0.60781200  1
  Ni  Ni38  1  0.30878700  0.64760800  0.20587500  1
  Ni  Ni39  1  0.66937500  0.85356200  0.10615100  1
  Ni  Ni40  1  0.80027000  0.35660000  0.29507800  1
  Ni  Ni41  1  0.17364600  0.14877900  0.39563500  1
  Ni  Ni42  1  0.59513300  0.08794100  0.33847500  1
  Ni  Ni43  1  0.82627400  0.54687500  0.10865000  1
  Ni  Ni44  1  0.40916200  0.42596100  0.15620700  1
  Ni  Ni45  1  0.32627400  0.95312500  0.89135000  1
  Ni  Ni46  1  0.19121300  0.14760800  0.20587500  1
  Ni  Ni47  1  0.83062500  0.35356200  0.10615100  1
  Ni  Ni48  1  0.16937500  0.64643800  0.89384900  1
  Ni  Ni49  1  0.80878700  0.85239200  0.79412500  1
  Ni  Ni50  1  0.67372600  0.04687500  0.10865000  1
  Ni  Ni51  1  0.59083800  0.57403900  0.84379300  1
  Ni  Ni52  1  0.17372600  0.45312500  0.89135000  1
  Ni  Ni53  1  0.40486700  0.91205900  0.66152500  1
  Ni  Ni54  1  0.82635400  0.85122100  0.60436500  1
  Ni  Ni55  1  0.19973000  0.64340000  0.70492200  1
  Ni  Ni56  1  0.33062500  0.14643800  0.89384900  1
  Ni  Ni57  1  0.69121300  0.35239200  0.79412500  1
  Ni  Ni58  1  0.18883600  0.95646300  0.39218800  1
  Ni  Ni59  1  0.68883600  0.54353700  0.60781200  1
  Ni  Ni60  1  0.09513300  0.41205900  0.66152500  1
  Ni  Ni61  1  0.69973000  0.85660000  0.29507800  1
  Ni  Ni62  1  0.32635400  0.64877900  0.39563500  1
  Ni  Ni63  1  0.09083800  0.92596100  0.15620700  1
  Cu  Cu64  1  0.96993500  0.26347400  0.50937300  1
  Cu  Cu65  1  0.46993500  0.23652600  0.49062700  1
  Cu  Cu66  1  0.02940000  0.76931000  0.00936900  1
  Cu  Cu67  1  0.52940000  0.73069000  0.99063100  1
  Cu  Cu68  1  0.47060000  0.26931000  0.00936900  1
  Cu  Cu69  1  0.97060000  0.23069000  0.99063100  1
  Cu  Cu70  1  0.53006500  0.76347400  0.50937300  1
  Cu  Cu71  1  0.03006500  0.73652600  0.49062700  1
