# generated using pymatgen
data_Cu(NiC3)2
_symmetry_space_group_name_H-M   'P 1'
_cell_length_a   4.75062800
_cell_length_b   9.50949900
_cell_length_c   9.26020500
_cell_angle_alpha   89.99997558
_cell_angle_beta   89.99999381
_cell_angle_gamma   89.99927667
_symmetry_Int_Tables_number   1
_chemical_formula_structural   Cu(NiC3)2
_chemical_formula_sum   'Cu4 Ni8 C24'
_cell_volume   418.33987500
_cell_formula_units_Z   4
loop_
 _symmetry_equiv_pos_site_id
 _symmetry_equiv_pos_as_xyz
  1  'x, y, z'
loop_
 _atom_site_type_symbol
 _atom_site_label
 _atom_site_symmetry_multiplicity
 _atom_site_fract_x
 _atom_site_fract_y
 _atom_site_fract_z
 _atom_site_occupancy
  Ni  Ni0  1  0.99447500  0.00753900  0.33789300  1
  Ni  Ni1  1  0.99447600  0.50752200  0.33787100  1
  Ni  Ni2  1  0.99447400  0.00753900  0.66210900  1
  Ni  Ni3  1  0.99447500  0.50752200  0.66212600  1
  Ni  Ni4  1  0.50552800  0.25751200  0.16210400  1
  Ni  Ni5  1  0.50554700  0.75753400  0.16212800  1
  Ni  Ni6  1  0.50553300  0.25751000  0.83789800  1
  Ni  Ni7  1  0.50554400  0.75753700  0.83787400  1
  Cu  Cu8  1  0.00153100  0.99760500  0.00000700  1
  Cu  Cu9  1  0.49849600  0.74761300  0.50000500  1
  Cu  Cu10  1  0.00146700  0.49772100  0.99999400  1
  Cu  Cu11  1  0.49852100  0.24773600  0.50000400  1
  C  C12  1  0.69811300  0.34611900  0.99999900  1
  C  C13  1  0.69810700  0.84609900  0.99999900  1
  C  C14  1  0.80190300  0.09611700  0.49999900  1
  C  C15  1  0.80190700  0.59609900  0.50000100  1
  C  C16  1  0.19249900  0.40084700  0.49999900  1
  C  C17  1  0.19252100  0.90083200  0.50000000  1
  C  C18  1  0.30749500  0.15084100  0.00000000  1
  C  C19  1  0.30750300  0.65084400  0.99999900  1
  C  C20  1  0.19757000  0.39916800  0.83124000  1
  C  C21  1  0.19759400  0.89914700  0.83124500  1
  C  C22  1  0.19757000  0.39916800  0.16875700  1
  C  C23  1  0.19759400  0.89914800  0.16875500  1
  C  C24  1  0.30241300  0.14915100  0.33123800  1
  C  C25  1  0.30240000  0.64913500  0.33123400  1
  C  C26  1  0.30241300  0.14915000  0.66876200  1
  C  C27  1  0.30240000  0.64913400  0.66876500  1
  C  C28  1  0.69601600  0.34602300  0.33010100  1
  C  C29  1  0.69598200  0.84600000  0.33010000  1
  C  C30  1  0.69601700  0.34602400  0.66989800  1
  C  C31  1  0.69598200  0.84599900  0.66989900  1
  C  C32  1  0.80399200  0.09600900  0.16990000  1
  C  C33  1  0.80397500  0.59602000  0.16990600  1
  C  C34  1  0.80399300  0.09601000  0.83010000  1
  C  C35  1  0.80397400  0.59601900  0.83009200  1
