# generated using pymatgen
data_Cu2NiC12
_symmetry_space_group_name_H-M   'P 1'
_cell_length_a   8.17234600
_cell_length_b   7.96449500
_cell_length_c   14.21131320
_cell_angle_alpha   74.70480492
_cell_angle_beta   90.00000000
_cell_angle_gamma   90.00000000
_symmetry_Int_Tables_number   1
_chemical_formula_structural   Cu2NiC12
_chemical_formula_sum   'Cu8 Ni4 C48'
_cell_volume   892.23087505
_cell_formula_units_Z   4
loop_
 _symmetry_equiv_pos_site_id
 _symmetry_equiv_pos_as_xyz
  1  'x, y, z'
loop_
 _atom_site_type_symbol
 _atom_site_label
 _atom_site_symmetry_multiplicity
 _atom_site_fract_x
 _atom_site_fract_y
 _atom_site_fract_z
 _atom_site_occupancy
  C  C0  1  0.03686100  0.68015400  0.20675000  1
  C  C1  1  0.53686100  0.31984600  0.29325000  1
  C  C2  1  0.96313900  0.31984600  0.79325000  1
  C  C3  1  0.46313900  0.68015400  0.70675000  1
  C  C4  1  0.05025100  0.19841500  0.13232900  1
  C  C5  1  0.55025100  0.80158500  0.36767100  1
  C  C6  1  0.94974900  0.80158500  0.86767100  1
  C  C7  1  0.44974900  0.19841500  0.63232900  1
  Ni  Ni8  1  0.96144500  0.27987100  0.47396600  1
  Ni  Ni9  1  0.46144500  0.72012900  0.02603400  1
  Ni  Ni10  1  0.03855500  0.72012900  0.52603400  1
  Ni  Ni11  1  0.53855500  0.27987100  0.97396600  1
  Cu  Cu12  1  0.90019600  0.99588600  0.35066800  1
  Cu  Cu13  1  0.40019600  0.00411400  0.14933200  1
  Cu  Cu14  1  0.09980400  0.00411400  0.64933200  1
  Cu  Cu15  1  0.59980400  0.99588600  0.85066800  1
  Cu  Cu16  1  0.22069700  0.50417900  0.95919600  1
  Cu  Cu17  1  0.72069700  0.49582100  0.54080400  1
  Cu  Cu18  1  0.77930300  0.49582100  0.04080400  1
  Cu  Cu19  1  0.27930300  0.50417900  0.45919600  1
  C  C20  1  0.93256700  0.03801800  0.24022500  1
  C  C21  1  0.43256700  0.96198200  0.25977500  1
  C  C22  1  0.06743300  0.96198200  0.75977500  1
  C  C23  1  0.56743300  0.03801800  0.74022500  1
  C  C24  1  0.11682300  0.34011600  0.00531300  1
  C  C25  1  0.61682300  0.65988400  0.49468700  1
  C  C26  1  0.88317700  0.65988400  0.99468700  1
  C  C27  1  0.38317700  0.34011600  0.50531300  1
  C  C28  1  0.90510900  0.06885800  0.06953200  1
  C  C29  1  0.40510900  0.93114200  0.43046800  1
  C  C30  1  0.09489100  0.93114200  0.93046800  1
  C  C31  1  0.59489100  0.06885800  0.56953200  1
  C  C32  1  0.21475200  0.01751900  0.12771600  1
  C  C33  1  0.71475200  0.98248100  0.37228400  1
  C  C34  1  0.78524800  0.98248100  0.87228400  1
  C  C35  1  0.28524800  0.01751900  0.62771600  1
  C  C36  1  0.87112400  0.38142100  0.12888700  1
  C  C37  1  0.37112400  0.61857900  0.37111300  1
  C  C38  1  0.12887600  0.61857900  0.87111300  1
  C  C39  1  0.62887600  0.38142100  0.62888700  1
  C  C40  1  0.97406200  0.13845300  0.39273200  1
  C  C41  1  0.47406200  0.86154700  0.10726800  1
  C  C42  1  0.02593800  0.86154700  0.60726800  1
  C  C43  1  0.52593800  0.13845300  0.89273200  1
  C  C44  1  0.98809800  0.81972700  0.39703600  1
  C  C45  1  0.48809800  0.18027300  0.10296400  1
  C  C46  1  0.01190200  0.18027300  0.60296400  1
  C  C47  1  0.51190200  0.81972700  0.89703600  1
  C  C48  1  0.38390100  0.44975400  0.91860400  1
  C  C49  1  0.88390100  0.55024600  0.58139600  1
  C  C50  1  0.61609900  0.55024600  0.08139600  1
  C  C51  1  0.11609900  0.44975400  0.41860400  1
  C  C52  1  0.16602400  0.28521400  0.20318200  1
  C  C53  1  0.66602400  0.71478600  0.29681800  1
  C  C54  1  0.83397600  0.71478600  0.79681800  1
  C  C55  1  0.33397600  0.28521400  0.70318200  1
  C  C56  1  0.26363300  0.60191300  0.03819900  1
  C  C57  1  0.76363300  0.39808700  0.46180100  1
  C  C58  1  0.73636700  0.39808700  0.96180100  1
  C  C59  1  0.23636700  0.60191300  0.53819900  1
