# generated using pymatgen
data_CuNiC5
_symmetry_space_group_name_H-M   'P 1'
_cell_length_a   4.66873832
_cell_length_b   4.66873832
_cell_length_c   4.66873832
_cell_angle_alpha   123.06644343
_cell_angle_beta   123.06644343
_cell_angle_gamma   84.76606082
_symmetry_Int_Tables_number   1
_chemical_formula_structural   CuNiC5
_chemical_formula_sum   'Cu1 Ni1 C5'
_cell_volume   68.31213045
_cell_formula_units_Z   1
loop_
 _symmetry_equiv_pos_site_id
 _symmetry_equiv_pos_as_xyz
  1  'x, y, z'
loop_
 _atom_site_type_symbol
 _atom_site_label
 _atom_site_symmetry_multiplicity
 _atom_site_fract_x
 _atom_site_fract_y
 _atom_site_fract_z
 _atom_site_occupancy
  C  C0  1  0.50000000  0.50000000  0.00000000  1
  Ni  Ni1  1  0.00000000  0.00000000  0.00000000  1
  Cu  Cu2  1  0.25000000  0.75000000  0.50000000  1
  C  C3  1  0.14423600  0.02495000  0.42511400  1
  C  C4  1  0.59983600  0.71912200  0.57488600  1
  C  C5  1  0.97505000  0.40016400  0.11928700  1
  C  C6  1  0.28087800  0.85576400  0.88071300  1
