# generated using pymatgen
data_Cu4NiC3
_symmetry_space_group_name_H-M   'P 1'
_cell_length_a   6.44544800
_cell_length_b   6.72758815
_cell_length_c   12.16312597
_cell_angle_alpha   95.12517419
_cell_angle_beta   98.51234339
_cell_angle_gamma   105.58815349
_symmetry_Int_Tables_number   1
_chemical_formula_structural   Cu4NiC3
_chemical_formula_sum   'Cu8 Ni2 C6'
_cell_volume   497.78956801
_cell_formula_units_Z   2
loop_
 _symmetry_equiv_pos_site_id
 _symmetry_equiv_pos_as_xyz
  1  'x, y, z'
loop_
 _atom_site_type_symbol
 _atom_site_label
 _atom_site_symmetry_multiplicity
 _atom_site_fract_x
 _atom_site_fract_y
 _atom_site_fract_z
 _atom_site_occupancy
  C  C0  1  0.27150200  0.25253900  0.02155800  1
  C  C1  1  0.96280300  0.43137900  0.70957700  1
  C  C2  1  0.72849800  0.74746100  0.97844200  1
  C  C3  1  0.70001400  0.75618800  0.52336000  1
  C  C4  1  0.03719700  0.56862100  0.29042300  1
  C  C5  1  0.29998600  0.24381200  0.47664000  1
  Ni  Ni6  1  0.58273500  0.01144200  0.25059500  1
  Ni  Ni7  1  0.41726500  0.98855800  0.74940500  1
  Cu  Cu8  1  0.78455800  0.97438700  0.76882400  1
  Cu  Cu9  1  0.25995900  0.81060600  0.89030500  1
  Cu  Cu10  1  0.58040100  0.65883000  0.23303000  1
  Cu  Cu11  1  0.21544200  0.02561300  0.23117600  1
  Cu  Cu12  1  0.74004100  0.18939400  0.10969500  1
  Cu  Cu13  1  0.22869200  0.81806000  0.56713200  1
  Cu  Cu14  1  0.41959900  0.34117000  0.76697000  1
  Cu  Cu15  1  0.77130800  0.18194000  0.43286800  1
