# generated using pymatgen
data_Cu4NiC2
_symmetry_space_group_name_H-M   'P 1'
_cell_length_a   8.32653900
_cell_length_b   7.91522400
_cell_length_c   11.06532605
_cell_angle_alpha   68.12478403
_cell_angle_beta   90.00000000
_cell_angle_gamma   90.00000000
_symmetry_Int_Tables_number   1
_chemical_formula_structural   Cu4NiC2
_chemical_formula_sum   'Cu16 Ni4 C8'
_cell_volume   676.76634853
_cell_formula_units_Z   4
loop_
 _symmetry_equiv_pos_site_id
 _symmetry_equiv_pos_as_xyz
  1  'x, y, z'
loop_
 _atom_site_type_symbol
 _atom_site_label
 _atom_site_symmetry_multiplicity
 _atom_site_fract_x
 _atom_site_fract_y
 _atom_site_fract_z
 _atom_site_occupancy
  C  C0  1  0.18756500  0.03365500  0.64729300  1
  C  C1  1  0.68756500  0.96634500  0.85270700  1
  C  C2  1  0.81243500  0.96634500  0.35270700  1
  C  C3  1  0.31243500  0.03365500  0.14729300  1
  C  C4  1  0.12639600  0.43813500  0.82766300  1
  C  C5  1  0.62639600  0.56186500  0.67233700  1
  C  C6  1  0.87360400  0.56186500  0.17233700  1
  C  C7  1  0.37360400  0.43813500  0.32766300  1
  Ni  Ni8  1  0.18138100  0.69731200  0.48453400  1
  Ni  Ni9  1  0.68138100  0.30268800  0.01546600  1
  Ni  Ni10  1  0.81861900  0.30268800  0.51546600  1
  Ni  Ni11  1  0.31861900  0.69731200  0.98453400  1
  Cu  Cu12  1  0.02798800  0.24044600  0.38867500  1
  Cu  Cu13  1  0.52798800  0.75955400  0.11132500  1
  Cu  Cu14  1  0.97201200  0.75955400  0.61132500  1
  Cu  Cu15  1  0.47201200  0.24044600  0.88867500  1
  Cu  Cu16  1  0.10717100  0.73166700  0.26598900  1
  Cu  Cu17  1  0.60717100  0.26833300  0.23401100  1
  Cu  Cu18  1  0.89282900  0.26833300  0.73401100  1
  Cu  Cu19  1  0.39282900  0.73166700  0.76598900  1
  Cu  Cu20  1  0.12646400  0.93479600  0.92592500  1
  Cu  Cu21  1  0.62646400  0.06520400  0.57407500  1
  Cu  Cu22  1  0.87353600  0.06520400  0.07407500  1
  Cu  Cu23  1  0.37353600  0.93479600  0.42592500  1
  Cu  Cu24  1  0.18728800  0.40646400  0.09517100  1
  Cu  Cu25  1  0.68728800  0.59353600  0.40482900  1
  Cu  Cu26  1  0.81271200  0.59353600  0.90482900  1
  Cu  Cu27  1  0.31271200  0.40646400  0.59517100  1
