# generated using pymatgen
data_Cu12Ni7C57
_symmetry_space_group_name_H-M   'P 1'
_cell_length_a   5.20825000
_cell_length_b   10.54542131
_cell_length_c   17.64956896
_cell_angle_alpha   90.49048089
_cell_angle_beta   90.38735460
_cell_angle_gamma   90.16229646
_symmetry_Int_Tables_number   1
_chemical_formula_structural   Cu12Ni7C57
_chemical_formula_sum   'Cu12 Ni7 C57'
_cell_volume   969.30891793
_cell_formula_units_Z   1
loop_
 _symmetry_equiv_pos_site_id
 _symmetry_equiv_pos_as_xyz
  1  'x, y, z'
loop_
 _atom_site_type_symbol
 _atom_site_label
 _atom_site_symmetry_multiplicity
 _atom_site_fract_x
 _atom_site_fract_y
 _atom_site_fract_z
 _atom_site_occupancy
  C  C0  1  0.09172400  0.75410200  0.74980200  1
  C  C1  1  0.25186500  0.57562300  0.03375300  1
  C  C2  1  0.25578300  0.41687900  0.52754000  1
  C  C3  1  0.25597000  0.08311900  0.52859800  1
  C  C4  1  0.24624300  0.73763000  0.19953000  1
  C  C5  1  0.74985100  0.24648400  0.80874400  1
  C  C6  1  0.74437100  0.08067000  0.96997700  1
  C  C7  1  0.75641500  0.74583900  0.29430400  1
  C  C8  1  0.90923100  0.25198000  0.25279700  1
  Ni  Ni9  1  0.23535400  0.25316700  0.70024500  1
  Ni  Ni10  1  0.22924800  0.93255700  0.03147700  1
  Ni  Ni11  1  0.41208300  0.25224000  0.24633300  1
  Ni  Ni12  1  0.58419000  0.74942200  0.75134000  1
  Ni  Ni13  1  0.76487800  0.93003500  0.47574500  1
  Ni  Ni14  1  0.76327200  0.57056200  0.47705300  1
  Ni  Ni15  1  0.77379800  0.42183800  0.97090000  1
  Cu  Cu16  1  0.23272200  0.25156100  0.05652700  1
  Cu  Cu17  1  0.22956400  0.96898300  0.34097000  1
  Cu  Cu18  1  0.22541800  0.53166500  0.34419400  1
  Cu  Cu19  1  0.28290500  0.46961600  0.84030300  1
  Cu  Cu20  1  0.28234200  0.03055500  0.84310000  1
  Cu  Cu21  1  0.30132400  0.75174200  0.55778700  1
  Cu  Cu22  1  0.71208100  0.24978600  0.44270500  1
  Cu  Cu23  1  0.71826800  0.53157400  0.15763000  1
  Cu  Cu24  1  0.71527500  0.96512800  0.16464600  1
  Cu  Cu25  1  0.78460100  0.46955100  0.66053900  1
  Cu  Cu26  1  0.77762400  0.03074300  0.66113500  1
  Cu  Cu27  1  0.76883400  0.74971900  0.94393800  1
  C  C28  1  0.05482800  0.76418800  0.00155300  1
  C  C29  1  0.06360300  0.37500200  0.62861100  1
  C  C30  1  0.06841200  0.12484300  0.63259000  1
  C  C31  1  0.07272100  0.35946300  0.77766200  1
  C  C32  1  0.09082800  0.12414500  0.78199100  1
  C  C33  1  0.06287400  0.88228100  0.52993300  1
  C  C34  1  0.06161800  0.61916900  0.53144500  1
  C  C35  1  0.10185100  0.99596700  0.92416100  1
  C  C36  1  0.06564900  0.49900400  0.92600600  1
  C  C37  1  0.17435500  0.24829200  0.16015300  1
  C  C38  1  0.17512400  0.38268500  0.29704300  1
  C  C39  1  0.17603800  0.11795800  0.29711500  1
  C  C40  1  0.36482600  0.88559300  0.79613100  1
  C  C41  1  0.36743900  0.62564500  0.79483300  1
  C  C42  1  0.37353800  0.75277000  0.66136600  1
  C  C43  1  0.42165100  0.50724300  0.42485100  1
  C  C44  1  0.42567000  0.99104300  0.42224800  1
  C  C45  1  0.40130600  0.10525500  0.03384100  1
  C  C46  1  0.42790100  0.38019200  0.03166300  1
  C  C47  1  0.40849600  0.87959600  0.28331000  1
  C  C48  1  0.39872700  0.62741100  0.29136800  1
  C  C49  1  0.42504300  0.88484500  0.11811700  1
  C  C50  1  0.45276700  0.61237800  0.13155900  1
  C  C51  1  0.45361200  0.24990600  0.49967000  1
  C  C52  1  0.59459700  0.74973400  0.48578200  1
  C  C53  1  0.58134100  0.38496200  0.88010100  1
  C  C54  1  0.54882200  0.11038800  0.86934800  1
  C  C55  1  0.54129800  0.37186900  0.70718100  1
  C  C56  1  0.55145900  0.13550100  0.70476000  1
  C  C57  1  0.56840900  0.87382400  0.96589000  1
  C  C58  1  0.59908900  0.61356500  0.96514600  1
  C  C59  1  0.59851400  0.98598400  0.57090000  1
  C  C60  1  0.59870200  0.51452100  0.57275200  1
  C  C61  1  0.63182800  0.25014600  0.34568000  1
  C  C62  1  0.63845200  0.38319800  0.20852100  1
  C  C63  1  0.64178400  0.12409200  0.20669800  1
  C  C64  1  0.83671800  0.88303000  0.70635700  1
  C  C65  1  0.83663900  0.61934900  0.70720600  1
  C  C66  1  0.83098900  0.75263300  0.84527900  1
  C  C67  1  0.89873500  0.49338800  0.07407200  1
  C  C68  1  0.92710300  0.99713100  0.07637000  1
  C  C69  1  0.89602200  0.38850300  0.46375200  1
  C  C70  1  0.89708400  0.11235000  0.46377700  1
  C  C71  1  0.91878000  0.87530100  0.21336300  1
  C  C72  1  0.90767700  0.62232000  0.21340400  1
  C  C73  1  0.94011000  0.89219600  0.37509300  1
  C  C74  1  0.93421600  0.60790300  0.37697100  1
  C  C75  1  0.93752100  0.26046700  0.99276300  1
