# generated using pymatgen
data_CuNi3C7
_symmetry_space_group_name_H-M   'P 1'
_cell_length_a   7.23648080
_cell_length_b   7.23648080
_cell_length_c   7.23648066
_cell_angle_alpha   91.90242336
_cell_angle_beta   91.90242336
_cell_angle_gamma   91.90241671
_symmetry_Int_Tables_number   1
_chemical_formula_structural   CuNi3C7
_chemical_formula_sum   'Cu2 Ni6 C14'
_cell_volume   378.30943205
_cell_formula_units_Z   2
loop_
 _symmetry_equiv_pos_site_id
 _symmetry_equiv_pos_as_xyz
  1  'x, y, z'
loop_
 _atom_site_type_symbol
 _atom_site_label
 _atom_site_symmetry_multiplicity
 _atom_site_fract_x
 _atom_site_fract_y
 _atom_site_fract_z
 _atom_site_occupancy
  Ni  Ni0  1  0.89907400  0.25000000  0.60092600  1
  Ni  Ni1  1  0.60092600  0.89907400  0.25000000  1
  Ni  Ni2  1  0.75000000  0.39907400  0.10092600  1
  Ni  Ni3  1  0.10092600  0.75000000  0.39907400  1
  Ni  Ni4  1  0.39907400  0.10092600  0.75000000  1
  Ni  Ni5  1  0.25000000  0.60092600  0.89907400  1
  Cu  Cu6  1  0.25000000  0.25000000  0.25000000  1
  Cu  Cu7  1  0.75000000  0.75000000  0.75000000  1
  C  C8  1  0.00000000  0.00000000  0.00000000  1
  C  C9  1  0.50000000  0.50000000  0.50000000  1
  C  C10  1  0.55057100  0.23406400  0.42279500  1
  C  C11  1  0.42279500  0.55057100  0.23406400  1
  C  C12  1  0.23406400  0.42279500  0.55057100  1
  C  C13  1  0.94942900  0.07720500  0.26593600  1
  C  C14  1  0.26593600  0.94942900  0.07720500  1
  C  C15  1  0.07720500  0.26593600  0.94942900  1
  C  C16  1  0.44942900  0.76593600  0.57720500  1
  C  C17  1  0.57720500  0.44942900  0.76593600  1
  C  C18  1  0.76593600  0.57720500  0.44942900  1
  C  C19  1  0.05057100  0.92279500  0.73406400  1
  C  C20  1  0.92279500  0.73406400  0.05057100  1
  C  C21  1  0.73406400  0.05057100  0.92279500  1
