# generated using pymatgen
data_CuNiC5
_symmetry_space_group_name_H-M   'P 1'
_cell_length_a   6.80900200
_cell_length_b   6.55843300
_cell_length_c   17.55955502
_cell_angle_alpha   72.54897951
_cell_angle_beta   90.00000000
_cell_angle_gamma   90.00000000
_symmetry_Int_Tables_number   1
_chemical_formula_structural   CuNiC5
_chemical_formula_sum   'Cu4 Ni4 C20'
_cell_volume   748.05484227
_cell_formula_units_Z   4
loop_
 _symmetry_equiv_pos_site_id
 _symmetry_equiv_pos_as_xyz
  1  'x, y, z'
loop_
 _atom_site_type_symbol
 _atom_site_label
 _atom_site_symmetry_multiplicity
 _atom_site_fract_x
 _atom_site_fract_y
 _atom_site_fract_z
 _atom_site_occupancy
  C  C0  1  0.24978100  0.28166700  0.96443000  1
  C  C1  1  0.74978100  0.71833300  0.53557000  1
  C  C2  1  0.75021900  0.71833300  0.03557000  1
  C  C3  1  0.25021900  0.28166700  0.46443000  1
  Ni  Ni4  1  0.73517000  0.20569700  0.84218800  1
  Ni  Ni5  1  0.23517000  0.79430300  0.65781200  1
  Ni  Ni6  1  0.26483000  0.79430300  0.15781200  1
  Ni  Ni7  1  0.76483000  0.20569700  0.34218800  1
  Cu  Cu8  1  0.80023700  0.75877700  0.77927400  1
  Cu  Cu9  1  0.30023700  0.24122300  0.72072600  1
  Cu  Cu10  1  0.19976300  0.24122300  0.22072600  1
  Cu  Cu11  1  0.69976300  0.75877700  0.27927400  1
  C  C12  1  0.50097400  0.98305400  0.86602200  1
  C  C13  1  0.00097400  0.01694600  0.63397800  1
  C  C14  1  0.49902600  0.01694600  0.13397800  1
  C  C15  1  0.99902600  0.98305400  0.36602200  1
  C  C16  1  0.74914700  0.41106300  0.91576900  1
  C  C17  1  0.24914700  0.58893700  0.58423100  1
  C  C18  1  0.25085300  0.58893700  0.08423100  1
  C  C19  1  0.75085300  0.41106300  0.41576900  1
  C  C20  1  0.99349500  0.01302200  0.85716500  1
  C  C21  1  0.49349500  0.98697800  0.64283500  1
  C  C22  1  0.00650500  0.98697800  0.14283500  1
  C  C23  1  0.50650500  0.01302200  0.35716500  1
  C  C24  1  0.68721200  0.40265400  0.72079500  1
  C  C25  1  0.18721200  0.59734600  0.77920500  1
  C  C26  1  0.31278800  0.59734600  0.27920500  1
  C  C27  1  0.81278800  0.40265400  0.22079500  1
