# generated using pymatgen
data_Cu11NiC3
_symmetry_space_group_name_H-M   'P 1'
_cell_length_a   7.32590000
_cell_length_b   5.99007629
_cell_length_c   5.42947933
_cell_angle_alpha   97.52179481
_cell_angle_beta   99.24876578
_cell_angle_gamma   94.54921316
_symmetry_Int_Tables_number   1
_chemical_formula_structural   Cu11NiC3
_chemical_formula_sum   'Cu11 Ni1 C3'
_cell_volume   231.90989310
_cell_formula_units_Z   1
loop_
 _symmetry_equiv_pos_site_id
 _symmetry_equiv_pos_as_xyz
  1  'x, y, z'
loop_
 _atom_site_type_symbol
 _atom_site_label
 _atom_site_symmetry_multiplicity
 _atom_site_fract_x
 _atom_site_fract_y
 _atom_site_fract_z
 _atom_site_occupancy
  C  C0  1  0.05805200  0.02899000  0.98816100  1
  C  C1  1  0.62630200  0.37081200  0.17033900  1
  C  C2  1  0.39635900  0.63352600  0.84035400  1
  Ni  Ni3  1  0.33246700  0.15957000  0.98328600  1
  Cu  Cu4  1  0.87405900  0.03626500  0.72387600  1
  Cu  Cu5  1  0.54635600  0.25361100  0.40104300  1
  Cu  Cu6  1  0.88582700  0.22283900  0.10514000  1
  Cu  Cu7  1  0.63618900  0.45885900  0.86568000  1
  Cu  Cu8  1  0.14023500  0.45392700  0.73338100  1
  Cu  Cu9  1  0.86508200  0.55834900  0.28980100  1
  Cu  Cu10  1  0.37248300  0.52296900  0.15539700  1
  Cu  Cu11  1  0.12781200  0.79605100  0.87819400  1
  Cu  Cu12  1  0.46677300  0.71385400  0.57884100  1
  Cu  Cu13  1  0.61679400  0.82435200  0.00722200  1
  Cu  Cu14  1  0.07146800  0.95892400  0.26338600  1
