# generated using pymatgen
data_CuNiC5
_symmetry_space_group_name_H-M   'P 1'
_cell_length_a   7.41671500
_cell_length_b   7.41671500
_cell_length_c   7.41671500
_cell_angle_alpha   90.00000000
_cell_angle_beta   90.00000000
_cell_angle_gamma   90.00000000
_symmetry_Int_Tables_number   1
_chemical_formula_structural   CuNiC5
_chemical_formula_sum   'Cu4 Ni4 C20'
_cell_volume   407.97614736
_cell_formula_units_Z   4
loop_
 _symmetry_equiv_pos_site_id
 _symmetry_equiv_pos_as_xyz
  1  'x, y, z'
loop_
 _atom_site_type_symbol
 _atom_site_label
 _atom_site_symmetry_multiplicity
 _atom_site_fract_x
 _atom_site_fract_y
 _atom_site_fract_z
 _atom_site_occupancy
  C  C0  1  0.22948300  0.27051700  0.72948300  1
  C  C1  1  0.27051700  0.72948300  0.22948300  1
  C  C2  1  0.72948300  0.22948300  0.27051700  1
  C  C3  1  0.77051700  0.77051700  0.77051700  1
  Ni  Ni4  1  0.71682200  0.78317800  0.21682200  1
  Ni  Ni5  1  0.78317800  0.21682200  0.71682200  1
  Ni  Ni6  1  0.21682200  0.71682200  0.78317800  1
  Ni  Ni7  1  0.28317800  0.28317800  0.28317800  1
  Cu  Cu8  1  0.97788200  0.52211800  0.47788200  1
  Cu  Cu9  1  0.52211800  0.47788200  0.97788200  1
  Cu  Cu10  1  0.47788200  0.97788200  0.52211800  1
  Cu  Cu11  1  0.02211800  0.02211800  0.02211800  1
  C  C12  1  0.87079600  0.33546400  0.52950700  1
  C  C13  1  0.37079600  0.16453600  0.47049300  1
  C  C14  1  0.12920400  0.83546400  0.97049300  1
  C  C15  1  0.16453600  0.47049300  0.37079600  1
  C  C16  1  0.97049300  0.12920400  0.83546400  1
  C  C17  1  0.47049300  0.37079600  0.16453600  1
  C  C18  1  0.33546400  0.52950700  0.87079600  1
  C  C19  1  0.52950700  0.87079600  0.33546400  1
  C  C20  1  0.83546400  0.97049300  0.12920400  1
  C  C21  1  0.66453600  0.02950700  0.62920400  1
  C  C22  1  0.02950700  0.62920400  0.66453600  1
  C  C23  1  0.62920400  0.66453600  0.02950700  1
  C  C24  1  0.14793100  0.14793100  0.14793100  1
  C  C25  1  0.35206900  0.85206900  0.64793100  1
  C  C26  1  0.64793100  0.35206900  0.85206900  1
  C  C27  1  0.85206900  0.64793100  0.35206900  1
