# generated using pymatgen
data_CuNi2C45
_symmetry_space_group_name_H-M   'P 1'
_cell_length_a   10.30095746
_cell_length_b   10.30095746
_cell_length_c   14.61346600
_cell_angle_alpha   90.00000000
_cell_angle_beta   90.00000000
_cell_angle_gamma   120.45954605
_symmetry_Int_Tables_number   1
_chemical_formula_structural   CuNi2C45
_chemical_formula_sum   'Cu2 Ni4 C90'
_cell_volume   1336.62409577
_cell_formula_units_Z   2
loop_
 _symmetry_equiv_pos_site_id
 _symmetry_equiv_pos_as_xyz
  1  'x, y, z'
loop_
 _atom_site_type_symbol
 _atom_site_label
 _atom_site_symmetry_multiplicity
 _atom_site_fract_x
 _atom_site_fract_y
 _atom_site_fract_z
 _atom_site_occupancy
  C  C0  1  0.00000000  0.00000000  0.75000000  1
  C  C1  1  0.00000000  0.00000000  0.25000000  1
  Ni  Ni2  1  0.66603300  0.33026900  0.00000000  1
  Ni  Ni3  1  0.66973100  0.33396700  0.50000000  1
  Ni  Ni4  1  0.33396700  0.66973100  0.00000000  1
  Ni  Ni5  1  0.33026900  0.66603300  0.50000000  1
  Cu  Cu6  1  0.50000000  0.50000000  0.75000000  1
  Cu  Cu7  1  0.50000000  0.50000000  0.25000000  1
  C  C8  1  0.67203400  0.32796600  0.75000000  1
  C  C9  1  0.67203400  0.32796600  0.25000000  1
  C  C10  1  0.32796600  0.67203400  0.75000000  1
  C  C11  1  0.32796600  0.67203400  0.25000000  1
  C  C12  1  0.88573200  0.64933800  0.60959100  1
  C  C13  1  0.88573200  0.64933800  0.39040900  1
  C  C14  1  0.76198000  0.64871800  0.89023300  1
  C  C15  1  0.76198000  0.64871800  0.10976700  1
  C  C16  1  0.88731300  0.23694600  0.89067800  1
  C  C17  1  0.88731300  0.23694600  0.10932200  1
  C  C18  1  0.76305400  0.11268700  0.60932200  1
  C  C19  1  0.76305400  0.11268700  0.39067800  1
  C  C20  1  0.35128200  0.23802000  0.60976700  1
  C  C21  1  0.35128200  0.23802000  0.39023300  1
  C  C22  1  0.64933800  0.88573200  0.89040900  1
  C  C23  1  0.64933800  0.88573200  0.10959100  1
  C  C24  1  0.35066200  0.11426800  0.89040900  1
  C  C25  1  0.35066200  0.11426800  0.10959100  1
  C  C26  1  0.64871800  0.76198000  0.39023300  1
  C  C27  1  0.64871800  0.76198000  0.60976700  1
  C  C28  1  0.23694600  0.88731300  0.60932200  1
  C  C29  1  0.23694600  0.88731300  0.39067800  1
  C  C30  1  0.11268700  0.76305400  0.10932200  1
  C  C31  1  0.11268700  0.76305400  0.89067800  1
  C  C32  1  0.23802000  0.35128200  0.89023300  1
  C  C33  1  0.23802000  0.35128200  0.10976700  1
  C  C34  1  0.11426800  0.35066200  0.60959100  1
  C  C35  1  0.11426800  0.35066200  0.39040900  1
  C  C36  1  0.94204200  0.72487300  0.86729500  1
  C  C37  1  0.94204200  0.72487300  0.13270500  1
  C  C38  1  0.78328000  0.72659400  0.63212000  1
  C  C39  1  0.78328000  0.72659400  0.36788000  1
  C  C40  1  0.86831800  0.60579400  0.50000000  1
  C  C41  1  0.73558000  0.60148800  0.00000000  1
  C  C42  1  0.82908500  0.49549500  0.66387900  1
  C  C43  1  0.82908500  0.49549500  0.33612100  1
  C  C44  1  0.83330000  0.33687100  0.83720300  1
  C  C45  1  0.83330000  0.33687100  0.16279700  1
  C  C46  1  0.94306700  0.21582000  0.63318800  1
  C  C47  1  0.94306700  0.21582000  0.36681200  1
  C  C48  1  0.65837100  0.50027000  0.83063200  1
  C  C49  1  0.65837100  0.50027000  0.16936800  1
  C  C50  1  0.86887000  0.26275000  0.00000000  1
  C  C51  1  0.73725000  0.13113000  0.50000000  1
  C  C52  1  0.49972900  0.34162900  0.66936800  1
  C  C53  1  0.49972900  0.34162900  0.33063200  1
  C  C54  1  0.78418000  0.05693300  0.86681200  1
  C  C55  1  0.78418000  0.05693300  0.13318800  1
  C  C56  1  0.66312900  0.16670000  0.33720300  1
  C  C57  1  0.66312900  0.16670000  0.66279700  1
  C  C58  1  0.50450500  0.17091500  0.83612100  1
  C  C59  1  0.50450500  0.17091500  0.16387900  1
  C  C60  1  0.39851200  0.26442000  0.50000000  1
  C  C61  1  0.72487300  0.94204200  0.63270500  1
  C  C62  1  0.72487300  0.94204200  0.36729500  1
  C  C63  1  0.39420600  0.13168200  0.00000000  1
  C  C64  1  0.27340600  0.21672000  0.86788000  1
  C  C65  1  0.27340600  0.21672000  0.13212000  1
  C  C66  1  0.72659400  0.78328000  0.86788000  1
  C  C67  1  0.72659400  0.78328000  0.13212000  1
  C  C68  1  0.60579400  0.86831800  0.00000000  1
  C  C69  1  0.27512700  0.05795800  0.63270500  1
  C  C70  1  0.27512700  0.05795800  0.36729500  1
  C  C71  1  0.60148800  0.73558000  0.50000000  1
  C  C72  1  0.49549500  0.82908500  0.83612100  1
  C  C73  1  0.49549500  0.82908500  0.16387900  1
  C  C74  1  0.33687100  0.83330000  0.66279700  1
  C  C75  1  0.33687100  0.83330000  0.33720300  1
  C  C76  1  0.21582000  0.94306700  0.86681200  1
  C  C77  1  0.21582000  0.94306700  0.13318800  1
  C  C78  1  0.50027000  0.65837100  0.66936800  1
  C  C79  1  0.50027000  0.65837100  0.33063200  1
  C  C80  1  0.26275000  0.86887000  0.50000000  1
  C  C81  1  0.13113000  0.73725000  0.00000000  1
  C  C82  1  0.34162900  0.49973000  0.83063200  1
  C  C83  1  0.34162900  0.49973000  0.16936800  1
  C  C84  1  0.05693300  0.78418000  0.63318800  1
  C  C85  1  0.05693300  0.78418000  0.36681200  1
  C  C86  1  0.16670000  0.66312900  0.83720300  1
  C  C87  1  0.16670000  0.66312900  0.16279700  1
  C  C88  1  0.17091500  0.50450500  0.66387900  1
  C  C89  1  0.17091500  0.50450500  0.33612100  1
  C  C90  1  0.26442000  0.39851200  0.00000000  1
  C  C91  1  0.13168200  0.39420600  0.50000000  1
  C  C92  1  0.21672000  0.27340600  0.63212000  1
  C  C93  1  0.21672000  0.27340600  0.36788000  1
  C  C94  1  0.05795800  0.27512700  0.86729500  1
  C  C95  1  0.05795800  0.27512700  0.13270500  1
