# generated using pymatgen
data_Cu6NiC33
_symmetry_space_group_name_H-M   'P 1'
_cell_length_a   8.65459700
_cell_length_b   8.71264967
_cell_length_c   8.71580600
_cell_angle_alpha   62.74117773
_cell_angle_beta   63.04628048
_cell_angle_gamma   62.96335069
_symmetry_Int_Tables_number   1
_chemical_formula_structural   Cu6NiC33
_chemical_formula_sum   'Cu6 Ni1 C33'
_cell_volume   494.82460466
_cell_formula_units_Z   1
loop_
 _symmetry_equiv_pos_site_id
 _symmetry_equiv_pos_as_xyz
  1  'x, y, z'
loop_
 _atom_site_type_symbol
 _atom_site_label
 _atom_site_symmetry_multiplicity
 _atom_site_fract_x
 _atom_site_fract_y
 _atom_site_fract_z
 _atom_site_occupancy
  C  C0  1  0.25175500  0.64813900  0.84979800  1
  C  C1  1  0.70679100  0.35582900  0.14992700  1
  C  C2  1  0.35745000  0.14632900  0.71082000  1
  C  C3  1  0.14828000  0.70387900  0.35916400  1
  C  C4  1  0.98116100  0.00008800  0.99553000  1
  C  C5  1  0.65410100  0.65232100  0.64651100  1
  C  C6  1  0.51250600  0.50047900  0.49563900  1
  C  C7  1  0.84692300  0.84885500  0.84655600  1
  C  C8  1  0.34544700  0.34094800  0.34692800  1
  Ni  Ni9  1  0.14928800  0.14870500  0.15477700  1
  Cu  Cu10  1  0.94380900  0.55938500  0.25535700  1
  Cu  Cu11  1  0.55829600  0.25388600  0.94406700  1
  Cu  Cu12  1  0.25417700  0.94210500  0.56128900  1
  Cu  Cu13  1  0.75395400  0.05634400  0.44506400  1
  Cu  Cu14  1  0.43514200  0.75103700  0.05284500  1
  Cu  Cu15  1  0.06631300  0.44831100  0.75663000  1
  C  C16  1  0.53101400  0.31919800  0.09461200  1
  C  C17  1  0.32397600  0.08985600  0.53206400  1
  C  C18  1  0.09050900  0.52534400  0.33128200  1
  C  C19  1  0.94822500  0.73542200  0.08941800  1
  C  C20  1  0.99128600  0.39445600  0.19327100  1
  C  C21  1  0.75355000  0.57359200  0.39645600  1
  C  C22  1  0.74278300  0.10086600  0.92354400  1
  C  C23  1  0.54806100  0.41062300  0.76385000  1
  C  C24  1  0.82909200  0.01881100  0.58930700  1
  C  C25  1  0.39574300  0.74987400  0.57596000  1
  C  C26  1  0.90266900  0.09092400  0.24242000  1
  C  C27  1  0.59325700  0.81593000  0.99677200  1
  C  C28  1  0.39728600  0.18203400  0.99724700  1
  C  C29  1  0.10194100  0.92325600  0.74837700  1
  C  C30  1  0.60183900  0.24819000  0.42338200  1
  C  C31  1  0.19015900  0.98815500  0.39907500  1
  C  C32  1  0.42312700  0.59927500  0.24421100  1
  C  C33  1  0.23794800  0.90448600  0.09348200  1
  C  C34  1  0.25290300  0.41846900  0.60013600  1
  C  C35  1  0.05606700  0.58889100  0.82236400  1
  C  C36  1  0.08938800  0.24715700  0.90665900  1
  C  C37  1  0.89880700  0.49424700  0.71012900  1
  C  C38  1  0.69675000  0.90377800  0.47141100  1
  C  C39  1  0.43821900  0.69752500  0.90666800  1
