# generated using pymatgen
data_CuNi4C3
_symmetry_space_group_name_H-M   'P 1'
_cell_length_a   5.22180400
_cell_length_b   7.35667272
_cell_length_c   10.53249195
_cell_angle_alpha   104.06124619
_cell_angle_beta   97.67226065
_cell_angle_gamma   108.59851059
_symmetry_Int_Tables_number   1
_chemical_formula_structural   CuNi4C3
_chemical_formula_sum   'Cu4 Ni16 C12'
_cell_volume   362.05803223
_cell_formula_units_Z   4
loop_
 _symmetry_equiv_pos_site_id
 _symmetry_equiv_pos_as_xyz
  1  'x, y, z'
loop_
 _atom_site_type_symbol
 _atom_site_label
 _atom_site_symmetry_multiplicity
 _atom_site_fract_x
 _atom_site_fract_y
 _atom_site_fract_z
 _atom_site_occupancy
  C  C0  1  0.53795200  0.62015700  0.80793600  1
  C  C1  1  0.03682400  0.11781200  0.30728700  1
  C  C2  1  0.96317600  0.88218800  0.69271300  1
  C  C3  1  0.46204800  0.37984300  0.19206400  1
  C  C4  1  0.50000000  0.50000000  0.50000000  1
  C  C5  1  0.00000000  0.50000000  0.00000000  1
  C  C6  1  0.00000000  0.00000000  0.00000000  1
  C  C7  1  0.50000000  0.00000000  0.50000000  1
  C  C8  1  0.49712500  0.05773700  0.82046700  1
  C  C9  1  0.99870500  0.55950000  0.32070400  1
  C  C10  1  0.00129500  0.44050000  0.67929600  1
  C  C11  1  0.50287500  0.94226300  0.17953300  1
  Ni  Ni12  1  0.70718000  0.94623800  0.83316000  1
  Ni  Ni13  1  0.20369700  0.44433700  0.33275400  1
  Ni  Ni14  1  0.64003000  0.28451900  0.89314700  1
  Ni  Ni15  1  0.36285400  0.01217200  0.66997100  1
  Ni  Ni16  1  0.14149600  0.78468700  0.39320900  1
  Ni  Ni17  1  0.86228400  0.51499400  0.17052300  1
  Ni  Ni18  1  0.24386500  0.96005000  0.87593100  1
  Ni  Ni19  1  0.74410900  0.46169200  0.37617100  1
  Ni  Ni20  1  0.25589100  0.53830800  0.62382900  1
  Ni  Ni21  1  0.75613500  0.03995000  0.12406900  1
  Ni  Ni22  1  0.13771600  0.48500600  0.82947700  1
  Ni  Ni23  1  0.85850400  0.21531300  0.60679100  1
  Ni  Ni24  1  0.63714600  0.98782800  0.33002900  1
  Ni  Ni25  1  0.35997000  0.71548100  0.10685300  1
  Ni  Ni26  1  0.79630300  0.55566300  0.66724600  1
  Ni  Ni27  1  0.29282000  0.05376200  0.16684000  1
  Cu  Cu28  1  0.83531400  0.70556900  0.96411300  1
  Cu  Cu29  1  0.33553900  0.19651400  0.46432000  1
  Cu  Cu30  1  0.66446100  0.80348600  0.53568000  1
  Cu  Cu31  1  0.16468600  0.29443100  0.03588700  1
