# generated using pymatgen
data_Cu6NiC7
_symmetry_space_group_name_H-M   'P 1'
_cell_length_a   10.96378300
_cell_length_b   10.96378300
_cell_length_c   10.96378300
_cell_angle_alpha   90.00000000
_cell_angle_beta   90.00000000
_cell_angle_gamma   90.00000000
_symmetry_Int_Tables_number   1
_chemical_formula_structural   Cu6NiC7
_chemical_formula_sum   'Cu24 Ni4 C28'
_cell_volume   1317.89646664
_cell_formula_units_Z   4
loop_
 _symmetry_equiv_pos_site_id
 _symmetry_equiv_pos_as_xyz
  1  'x, y, z'
loop_
 _atom_site_type_symbol
 _atom_site_label
 _atom_site_symmetry_multiplicity
 _atom_site_fract_x
 _atom_site_fract_y
 _atom_site_fract_z
 _atom_site_occupancy
  C  C0  1  0.07007300  0.89296600  0.72779400  1
  C  C1  1  0.72779400  0.07007300  0.89296600  1
  C  C2  1  0.89296600  0.72779400  0.07007300  1
  C  C3  1  0.60703400  0.27220600  0.57007300  1
  C  C4  1  0.22779400  0.42992700  0.10703400  1
  C  C5  1  0.10703400  0.22779400  0.42992700  1
  C  C6  1  0.77220600  0.92992700  0.39296600  1
  C  C7  1  0.27220600  0.57007300  0.60703400  1
  C  C8  1  0.39296600  0.77220600  0.92992700  1
  C  C9  1  0.57007300  0.60703400  0.27220600  1
  C  C10  1  0.92992700  0.39296600  0.77220600  1
  C  C11  1  0.42992700  0.10703400  0.22779400  1
  C  C12  1  0.01040700  0.01841500  0.27897300  1
  C  C13  1  0.27897300  0.01040700  0.01841500  1
  C  C14  1  0.01841500  0.27897300  0.01040700  1
  C  C15  1  0.48158500  0.72102700  0.51040700  1
  C  C16  1  0.77897300  0.48959300  0.98158500  1
  C  C17  1  0.98158500  0.77897300  0.48959300  1
  C  C18  1  0.22102700  0.98959300  0.51841500  1
  C  C19  1  0.72102700  0.51040700  0.48158500  1
  C  C20  1  0.51841500  0.22102700  0.98959300  1
  C  C21  1  0.51040700  0.48158500  0.72102700  1
  C  C22  1  0.98959300  0.51841500  0.22102700  1
  C  C23  1  0.48959300  0.98158500  0.77897300  1
  C  C24  1  0.34475000  0.34475000  0.34475000  1
  C  C25  1  0.15525000  0.65525000  0.84475000  1
  C  C26  1  0.84475000  0.15525000  0.65525000  1
  C  C27  1  0.65525000  0.84475000  0.15525000  1
  Ni  Ni28  1  0.74542300  0.74542300  0.74542300  1
  Ni  Ni29  1  0.75457700  0.25457700  0.24542300  1
  Ni  Ni30  1  0.24542300  0.75457700  0.25457700  1
  Ni  Ni31  1  0.25457700  0.24542300  0.75457700  1
  Cu  Cu32  1  0.86536300  0.86536300  0.86536300  1
  Cu  Cu33  1  0.63463700  0.13463700  0.36536300  1
  Cu  Cu34  1  0.36536300  0.63463700  0.13463700  1
  Cu  Cu35  1  0.13463700  0.36536300  0.63463700  1
  Cu  Cu36  1  0.36080100  0.36765600  0.88005200  1
  Cu  Cu37  1  0.88005200  0.36080100  0.36765600  1
  Cu  Cu38  1  0.36765600  0.88005200  0.36080100  1
  Cu  Cu39  1  0.13234400  0.11994800  0.86080100  1
  Cu  Cu40  1  0.38005200  0.13919900  0.63234400  1
  Cu  Cu41  1  0.63234400  0.38005200  0.13919900  1
  Cu  Cu42  1  0.61994800  0.63919900  0.86765600  1
  Cu  Cu43  1  0.11994800  0.86080100  0.13234400  1
  Cu  Cu44  1  0.86765600  0.61994800  0.63919900  1
  Cu  Cu45  1  0.86080100  0.13234400  0.11994800  1
  Cu  Cu46  1  0.63919900  0.86765600  0.61994800  1
  Cu  Cu47  1  0.13919900  0.63234400  0.38005200  1
  Cu  Cu48  1  0.21173000  0.21173000  0.21173000  1
  Cu  Cu49  1  0.28827000  0.78827000  0.71173000  1
  Cu  Cu50  1  0.71173000  0.28827000  0.78827000  1
  Cu  Cu51  1  0.78827000  0.71173000  0.28827000  1
  Cu  Cu52  1  0.47930600  0.47930600  0.47930600  1
  Cu  Cu53  1  0.02069400  0.52069400  0.97930600  1
  Cu  Cu54  1  0.97930600  0.02069400  0.52069400  1
  Cu  Cu55  1  0.52069400  0.97930600  0.02069400  1
