# generated using pymatgen
data_Cu12Ni7C57
_symmetry_space_group_name_H-M   'P 1'
_cell_length_a   5.18864000
_cell_length_b   10.53406209
_cell_length_c   17.75175726
_cell_angle_alpha   89.74141057
_cell_angle_beta   88.50147498
_cell_angle_gamma   89.87005987
_symmetry_Int_Tables_number   1
_chemical_formula_structural   Cu12Ni7C57
_chemical_formula_sum   'Cu12 Ni7 C57'
_cell_volume   969.92193634
_cell_formula_units_Z   1
loop_
 _symmetry_equiv_pos_site_id
 _symmetry_equiv_pos_as_xyz
  1  'x, y, z'
loop_
 _atom_site_type_symbol
 _atom_site_label
 _atom_site_symmetry_multiplicity
 _atom_site_fract_x
 _atom_site_fract_y
 _atom_site_fract_z
 _atom_site_occupancy
  C  C0  1  0.24952300  0.58161400  0.03915800  1
  C  C1  1  0.25102400  0.26920900  0.69850700  1
  C  C2  1  0.25355400  0.73023800  0.20189500  1
  C  C3  1  0.24558000  0.41582000  0.53311600  1
  C  C4  1  0.41227100  0.25735400  0.25257600  1
  C  C5  1  0.58051700  0.74431000  0.74815900  1
  C  C6  1  0.76398000  0.91475600  0.46234600  1
  C  C7  1  0.75304800  0.25854500  0.79305000  1
  C  C8  1  0.76926700  0.74972700  0.29684300  1
  Ni  Ni9  1  0.07679400  0.74733600  0.75022600  1
  Ni  Ni10  1  0.23159300  0.92050000  0.03638900  1
  Ni  Ni11  1  0.22880200  0.06845300  0.52424300  1
  Ni  Ni12  1  0.76376000  0.56891200  0.47606600  1
  Ni  Ni13  1  0.72055100  0.44620500  0.97482400  1
  Ni  Ni14  1  0.74207800  0.08403400  0.96700400  1
  Ni  Ni15  1  0.91332800  0.25077400  0.24910400  1
  Cu  Cu16  1  0.25471000  0.97522700  0.33778800  1
  Cu  Cu17  1  0.23082100  0.52656100  0.34681900  1
  Cu  Cu18  1  0.27459600  0.46847700  0.84288900  1
  Cu  Cu19  1  0.27986800  0.03409700  0.83129700  1
  Cu  Cu20  1  0.73476800  0.52844700  0.15755200  1
  Cu  Cu21  1  0.68857500  0.95558400  0.17984100  1
  Cu  Cu22  1  0.77279200  0.46891100  0.65645500  1
  Cu  Cu23  1  0.75996600  0.02372400  0.65642400  1
  Cu  Cu24  1  0.19292300  0.25197300  0.05933900  1
  Cu  Cu25  1  0.30012300  0.74581400  0.55711400  1
  Cu  Cu26  1  0.69941500  0.24867000  0.44377500  1
  Cu  Cu27  1  0.79266100  0.76417400  0.94145700  1
  C  C28  1  0.08207300  0.76210800  0.00951700  1
  C  C29  1  0.04223900  0.38910800  0.62950800  1
  C  C30  1  0.04941100  0.10620900  0.62299000  1
  C  C31  1  0.10400000  0.37283000  0.79021600  1
  C  C32  1  0.07241700  0.12942300  0.79025600  1
  C  C33  1  0.11516100  0.89036600  0.53140200  1
  C  C34  1  0.05670200  0.62531500  0.53008200  1
  C  C35  1  0.06169800  0.99515100  0.92656000  1
  C  C36  1  0.07163500  0.49657800  0.92232600  1
  C  C37  1  0.15111200  0.25433600  0.16466900  1
  C  C38  1  0.15158200  0.38413100  0.29964300  1
  C  C39  1  0.14860000  0.12124700  0.29856200  1
  C  C40  1  0.31987900  0.87383800  0.79064300  1
  C  C41  1  0.31763400  0.61625700  0.79396900  1
  C  C42  1  0.32749000  0.74628800  0.65620200  1
  C  C43  1  0.41906700  0.01134000  0.42344600  1
  C  C44  1  0.42416200  0.49414800  0.42526200  1
  C  C45  1  0.41543300  0.10705000  0.03222200  1
  C  C46  1  0.43458300  0.37875000  0.02828100  1
  C  C47  1  0.46591700  0.90031100  0.27199000  1
  C  C48  1  0.39996400  0.62781100  0.29343900  1
  C  C49  1  0.41822400  0.87983500  0.12119900  1
  C  C50  1  0.46175200  0.60401400  0.13299600  1
  C  C51  1  0.43029000  0.23178400  0.51214100  1
  C  C52  1  0.56494300  0.73474000  0.48758100  1
  C  C53  1  0.57023400  0.39596600  0.87432800  1
  C  C54  1  0.56876800  0.11904000  0.87806400  1
  C  C55  1  0.58936400  0.37382800  0.71247000  1
  C  C56  1  0.57960400  0.10764000  0.71850900  1
  C  C57  1  0.56064300  0.90165800  0.96689700  1
  C  C58  1  0.59606600  0.61362700  0.96913300  1
  C  C59  1  0.56802600  0.99669700  0.57831100  1
  C  C60  1  0.58476600  0.51152300  0.57498200  1
  C  C61  1  0.67382800  0.25198800  0.34530500  1
  C  C62  1  0.67788100  0.38357600  0.21158000  1
  C  C63  1  0.68259400  0.12678500  0.20938200  1
  C  C64  1  0.85006200  0.87773800  0.69864800  1
  C  C65  1  0.85657900  0.61537600  0.70469900  1
  C  C66  1  0.84987400  0.75318800  0.83629000  1
  C  C67  1  0.91726000  0.47940500  0.07200100  1
  C  C68  1  0.91574900  0.01129100  0.07147700  1
  C  C69  1  0.88768400  0.39100600  0.46814700  1
  C  C70  1  0.93702900  0.12247000  0.46953900  1
  C  C71  1  0.93883400  0.86956000  0.20431100  1
  C  C72  1  0.91663800  0.62309100  0.20958500  1
  C  C73  1  0.99758600  0.88587100  0.36264600  1
  C  C74  1  0.93490300  0.60742000  0.37706700  1
  C  C75  1  0.90317500  0.24884300  0.98727000  1
