# generated using pymatgen
data_Cu(Ni3C17)2
_symmetry_space_group_name_H-M   'P 1'
_cell_length_a   15.22249862
_cell_length_b   15.22249862
_cell_length_c   15.22249862
_cell_angle_alpha   60.00000000
_cell_angle_beta   60.00000000
_cell_angle_gamma   60.00000000
_symmetry_Int_Tables_number   1
_chemical_formula_structural   Cu(Ni3C17)2
_chemical_formula_sum   'Cu2 Ni12 C68'
_cell_volume   2494.26637540
_cell_formula_units_Z   2
loop_
 _symmetry_equiv_pos_site_id
 _symmetry_equiv_pos_as_xyz
  1  'x, y, z'
loop_
 _atom_site_type_symbol
 _atom_site_label
 _atom_site_symmetry_multiplicity
 _atom_site_fract_x
 _atom_site_fract_y
 _atom_site_fract_z
 _atom_site_occupancy
  Ni  Ni0  1  0.35198700  0.35198700  0.64801300  1
  Ni  Ni1  1  0.64801300  0.64801300  0.35198700  1
  Ni  Ni2  1  0.35198700  0.64801300  0.35198700  1
  Ni  Ni3  1  0.64801300  0.35198700  0.64801300  1
  Ni  Ni4  1  0.64801300  0.35198700  0.35198700  1
  Ni  Ni5  1  0.35198700  0.64801300  0.64801300  1
  Ni  Ni6  1  0.89801300  0.89801300  0.60198700  1
  Ni  Ni7  1  0.60198700  0.60198700  0.89801300  1
  Ni  Ni8  1  0.89801300  0.60198700  0.89801300  1
  Ni  Ni9  1  0.60198700  0.89801300  0.60198700  1
  Ni  Ni10  1  0.60198700  0.89801300  0.89801300  1
  Ni  Ni11  1  0.89801300  0.60198700  0.60198700  1
  Cu  Cu12  1  0.25000000  0.25000000  0.25000000  1
  Cu  Cu13  1  0.00000000  0.00000000  0.00000000  1
  C  C14  1  0.26112500  0.49779300  0.49779300  1
  C  C15  1  0.49779300  0.26112500  0.74328800  1
  C  C16  1  0.49779300  0.74328800  0.26112500  1
  C  C17  1  0.74328800  0.49779300  0.49779300  1
  C  C18  1  0.49779300  0.49779300  0.26112500  1
  C  C19  1  0.26112500  0.74328800  0.49779300  1
  C  C20  1  0.74328800  0.26112500  0.49779300  1
  C  C21  1  0.49779300  0.49779300  0.74328800  1
  C  C22  1  0.49779300  0.26112500  0.49779300  1
  C  C23  1  0.74328800  0.49779300  0.26112500  1
  C  C24  1  0.26112500  0.49779300  0.74328800  1
  C  C25  1  0.49779300  0.74328800  0.49779300  1
  C  C26  1  0.98887500  0.75220700  0.75220700  1
  C  C27  1  0.75220700  0.98887500  0.50671200  1
  C  C28  1  0.75220700  0.50671200  0.98887500  1
  C  C29  1  0.50671200  0.75220700  0.75220700  1
  C  C30  1  0.75220700  0.75220700  0.98887500  1
  C  C31  1  0.98887500  0.50671200  0.75220700  1
  C  C32  1  0.50671200  0.98887500  0.75220700  1
  C  C33  1  0.75220700  0.75220700  0.50671200  1
  C  C34  1  0.75220700  0.98887500  0.75220700  1
  C  C35  1  0.50671200  0.75220700  0.98887500  1
  C  C36  1  0.98887500  0.75220700  0.50671200  1
  C  C37  1  0.75220700  0.50671200  0.75220700  1
  C  C38  1  0.03707900  0.32097400  0.32097400  1
  C  C39  1  0.32097400  0.03707900  0.32097400  1
  C  C40  1  0.32097400  0.32097400  0.03707900  1
  C  C41  1  0.32097400  0.32097400  0.32097400  1
  C  C42  1  0.21292100  0.92902600  0.92902600  1
  C  C43  1  0.92902600  0.21292100  0.92902600  1
  C  C44  1  0.92902600  0.92902600  0.21292100  1
  C  C45  1  0.92902600  0.92902600  0.92902600  1
  C  C46  1  0.27244200  0.27244200  0.72755800  1
  C  C47  1  0.72755800  0.72755800  0.27244200  1
  C  C48  1  0.27244200  0.72755800  0.27244200  1
  C  C49  1  0.72755800  0.27244200  0.72755800  1
  C  C50  1  0.72755800  0.27244200  0.27244200  1
  C  C51  1  0.27244200  0.72755800  0.72755800  1
  C  C52  1  0.97755800  0.97755800  0.52244200  1
  C  C53  1  0.52244200  0.52244200  0.97755800  1
  C  C54  1  0.97755800  0.52244200  0.97755800  1
  C  C55  1  0.52244200  0.97755800  0.52244200  1
  C  C56  1  0.52244200  0.97755800  0.97755800  1
  C  C57  1  0.97755800  0.52244200  0.52244200  1
  C  C58  1  0.60039400  0.18323800  0.18323800  1
  C  C59  1  0.18323800  0.60039400  0.03313100  1
  C  C60  1  0.18323800  0.03313100  0.60039400  1
  C  C61  1  0.03313100  0.18323800  0.18323800  1
  C  C62  1  0.18323800  0.18323800  0.60039400  1
  C  C63  1  0.60039400  0.03313100  0.18323800  1
  C  C64  1  0.03313100  0.60039400  0.18323800  1
  C  C65  1  0.18323800  0.18323800  0.03313100  1
  C  C66  1  0.18323800  0.60039400  0.18323800  1
  C  C67  1  0.03313100  0.18323800  0.60039400  1
  C  C68  1  0.60039400  0.18323800  0.03313100  1
  C  C69  1  0.18323800  0.03313100  0.18323800  1
  C  C70  1  0.64960600  0.06676200  0.06676200  1
  C  C71  1  0.06676200  0.64960600  0.21686900  1
  C  C72  1  0.06676200  0.21686900  0.64960600  1
  C  C73  1  0.21686900  0.06676200  0.06676200  1
  C  C74  1  0.06676200  0.06676200  0.64960600  1
  C  C75  1  0.64960600  0.21686900  0.06676200  1
  C  C76  1  0.21686900  0.64960600  0.06676200  1
  C  C77  1  0.06676200  0.06676200  0.21686900  1
  C  C78  1  0.06676200  0.64960600  0.06676200  1
  C  C79  1  0.21686900  0.06676200  0.64960600  1
  C  C80  1  0.64960600  0.06676200  0.21686900  1
  C  C81  1  0.06676200  0.21686900  0.06676200  1
