# generated using pymatgen
data_Cu3NiC
_symmetry_space_group_name_H-M   'P 1'
_cell_length_a   9.06442163
_cell_length_b   9.06442163
_cell_length_c   9.06442163
_cell_angle_alpha   60.00000000
_cell_angle_beta   60.00000000
_cell_angle_gamma   60.00000000
_symmetry_Int_Tables_number   1
_chemical_formula_structural   Cu3NiC
_chemical_formula_sum   'Cu12 Ni4 C4'
_cell_volume   526.62963818
_cell_formula_units_Z   4
loop_
 _symmetry_equiv_pos_site_id
 _symmetry_equiv_pos_as_xyz
  1  'x, y, z'
loop_
 _atom_site_type_symbol
 _atom_site_label
 _atom_site_symmetry_multiplicity
 _atom_site_fract_x
 _atom_site_fract_y
 _atom_site_fract_z
 _atom_site_occupancy
  C  C0  1  0.62500000  0.12500000  0.12500000  1
  C  C1  1  0.12500000  0.62500000  0.12500000  1
  C  C2  1  0.12500000  0.12500000  0.62500000  1
  C  C3  1  0.12500000  0.12500000  0.12500000  1
  Ni  Ni4  1  0.12500000  0.62500000  0.62500000  1
  Ni  Ni5  1  0.62500000  0.12500000  0.62500000  1
  Ni  Ni6  1  0.62500000  0.62500000  0.12500000  1
  Ni  Ni7  1  0.62500000  0.62500000  0.62500000  1
  Cu  Cu8  1  0.97128400  0.97128400  0.52871600  1
  Cu  Cu9  1  0.52871600  0.52871600  0.97128400  1
  Cu  Cu10  1  0.97128400  0.52871600  0.97128400  1
  Cu  Cu11  1  0.52871600  0.97128400  0.52871600  1
  Cu  Cu12  1  0.52871600  0.97128400  0.97128400  1
  Cu  Cu13  1  0.97128400  0.52871600  0.52871600  1
  Cu  Cu14  1  0.27871600  0.27871600  0.72128400  1
  Cu  Cu15  1  0.72128400  0.72128400  0.27871600  1
  Cu  Cu16  1  0.27871600  0.72128400  0.27871600  1
  Cu  Cu17  1  0.72128400  0.27871600  0.72128400  1
  Cu  Cu18  1  0.72128400  0.27871600  0.27871600  1
  Cu  Cu19  1  0.27871600  0.72128400  0.72128400  1
