# generated using pymatgen
data_CuNiC
_symmetry_space_group_name_H-M   'P 1'
_cell_length_a   3.98552900
_cell_length_b   6.88349900
_cell_length_c   7.74532600
_cell_angle_alpha   90.00000000
_cell_angle_beta   90.00000000
_cell_angle_gamma   90.00000000
_symmetry_Int_Tables_number   1
_chemical_formula_structural   CuNiC
_chemical_formula_sum   'Cu4 Ni4 C4'
_cell_volume   212.48825455
_cell_formula_units_Z   4
loop_
 _symmetry_equiv_pos_site_id
 _symmetry_equiv_pos_as_xyz
  1  'x, y, z'
loop_
 _atom_site_type_symbol
 _atom_site_label
 _atom_site_symmetry_multiplicity
 _atom_site_fract_x
 _atom_site_fract_y
 _atom_site_fract_z
 _atom_site_occupancy
  C  C0  1  0.25000000  0.03139700  0.18723300  1
  C  C1  1  0.75000000  0.96860300  0.81276700  1
  C  C2  1  0.25000000  0.53139700  0.31276700  1
  C  C3  1  0.75000000  0.46860300  0.68723300  1
  Ni  Ni4  1  0.25000000  0.74916900  0.62326500  1
  Ni  Ni5  1  0.75000000  0.25083100  0.37673500  1
  Ni  Ni6  1  0.25000000  0.24916900  0.87673500  1
  Ni  Ni7  1  0.75000000  0.75083100  0.12326500  1
  Cu  Cu8  1  0.75000000  0.35255700  0.06113100  1
  Cu  Cu9  1  0.25000000  0.64744300  0.93886900  1
  Cu  Cu10  1  0.75000000  0.85255700  0.43886900  1
  Cu  Cu11  1  0.25000000  0.14744300  0.56113100  1
