# generated using pymatgen
data_Cu3NiC36
_symmetry_space_group_name_H-M   'P 1'
_cell_length_a   8.53359400
_cell_length_b   8.82572980
_cell_length_c   12.39380376
_cell_angle_alpha   90.26049644
_cell_angle_beta   92.63905390
_cell_angle_gamma   91.13865731
_symmetry_Int_Tables_number   1
_chemical_formula_structural   Cu3NiC36
_chemical_formula_sum   'Cu6 Ni2 C72'
_cell_volume   932.25368514
_cell_formula_units_Z   2
loop_
 _symmetry_equiv_pos_site_id
 _symmetry_equiv_pos_as_xyz
  1  'x, y, z'
loop_
 _atom_site_type_symbol
 _atom_site_label
 _atom_site_symmetry_multiplicity
 _atom_site_fract_x
 _atom_site_fract_y
 _atom_site_fract_z
 _atom_site_occupancy
  C  C0  1  0.00125200  0.00397700  0.00407600  1
  C  C1  1  0.00067000  0.90476900  0.24830400  1
  C  C2  1  0.00002700  0.00144100  0.49936000  1
  C  C3  1  0.00134200  0.10040400  0.74974800  1
  C  C4  1  0.70836400  0.19443200  0.04879900  1
  C  C5  1  0.70854600  0.80579400  0.54697200  1
  C  C6  1  0.49287200  0.49749300  0.00116400  1
  C  C7  1  0.50072000  0.59555100  0.24906500  1
  C  C8  1  0.49892900  0.49909200  0.49992100  1
  C  C9  1  0.49316200  0.39998900  0.75189600  1
  C  C10  1  0.29109900  0.19468400  0.45070900  1
  C  C11  1  0.29572500  0.80861200  0.95239200  1
  Ni  Ni12  1  0.28726500  0.00044700  0.14337400  1
  Ni  Ni13  1  0.21118100  0.50321200  0.85214100  1
  Cu  Cu14  1  0.78777800  0.50135700  0.14423400  1
  Cu  Cu15  1  0.78689900  0.49933200  0.64410300  1
  Cu  Cu16  1  0.71621600  0.00271100  0.35773000  1
  Cu  Cu17  1  0.71516400  0.99601600  0.85911700  1
  Cu  Cu18  1  0.28243800  0.99697500  0.64197900  1
  Cu  Cu19  1  0.21260700  0.49909300  0.35578800  1
  C  C20  1  0.99507000  0.20365700  0.24802700  1
  C  C21  1  0.99907600  0.80054800  0.75146100  1
  C  C22  1  0.84569700  0.64474600  0.39596600  1
  C  C23  1  0.84840500  0.35698700  0.89512000  1
  C  C24  1  0.65158100  0.84991700  0.10082500  1
  C  C25  1  0.64915400  0.14574600  0.60381500  1
  C  C26  1  0.49847100  0.29046600  0.24936800  1
  C  C27  1  0.49613200  0.70582900  0.74772600  1
  C  C28  1  0.34921600  0.85340200  0.39711600  1
  C  C29  1  0.35392500  0.14604000  0.89838400  1
  C  C30  1  0.16029900  0.64710600  0.10679500  1
  C  C31  1  0.15616600  0.35349100  0.60326200  1
  C  C32  1  0.99091400  0.59118000  0.10354700  1
  C  C33  1  0.98982200  0.41126600  0.60662900  1
  C  C34  1  0.92967000  0.09710900  0.33779900  1
  C  C35  1  0.92903100  0.91211000  0.83443200  1
  C  C36  1  0.86822400  0.30101300  0.19240100  1
  C  C37  1  0.87222900  0.70243000  0.69083900  1
  C  C38  1  0.85643100  0.82215100  0.41119900  1
  C  C39  1  0.85614800  0.18035000  0.90822200  1
  C  C40  1  0.75061800  0.59589200  0.29212600  1
  C  C41  1  0.75306400  0.93636700  0.01778100  1
  C  C42  1  0.74693200  0.58985100  0.49245800  1
  C  C43  1  0.75469300  0.40623600  0.79221900  1
  C  C44  1  0.74610000  0.06134600  0.51946900  1
  C  C45  1  0.72438400  0.90255900  0.21201000  1
  C  C46  1  0.75381400  0.40935700  0.99256600  1
  C  C47  1  0.72240000  0.09647500  0.71390100  1
  C  C48  1  0.65904400  0.67453700  0.08814600  1
  C  C49  1  0.65482100  0.32081200  0.58958400  1
  C  C50  1  0.61463500  0.19265500  0.31241400  1
  C  C51  1  0.61868500  0.80099600  0.81251000  1
  C  C52  1  0.56943200  0.39746900  0.16298100  1
  C  C53  1  0.56651700  0.59485700  0.66498500  1
  C  C54  1  0.52613600  0.89385600  0.40840000  1
  C  C55  1  0.52892600  0.10117000  0.91010100  1
  C  C56  1  0.47684400  0.88470600  0.08469100  1
  C  C57  1  0.47223600  0.10567000  0.59129200  1
  C  C58  1  0.42786400  0.39794800  0.33467500  1
  C  C59  1  0.42073700  0.60225400  0.83617300  1
  C  C60  1  0.37618500  0.19228700  0.18432100  1
  C  C61  1  0.38058300  0.80401700  0.68482400  1
  C  C62  1  0.34519500  0.67833000  0.41097600  1
  C  C63  1  0.35778900  0.32045400  0.91166400  1
  C  C64  1  0.27155200  0.90628800  0.28900000  1
  C  C65  1  0.25909800  0.59921600  0.01109800  1
  C  C66  1  0.27602500  0.09586500  0.78797300  1
  C  C67  1  0.25297400  0.93650200  0.48262600  1
  C  C68  1  0.25046800  0.59804700  0.21086900  1
  C  C69  1  0.25180500  0.40846200  0.50569200  1
  C  C70  1  0.25450600  0.05775600  0.98145500  1
  C  C71  1  0.25574700  0.39824300  0.70545800  1
  C  C72  1  0.14739900  0.82654000  0.09703600  1
  C  C73  1  0.14270000  0.17637600  0.58693200  1
  C  C74  1  0.12721500  0.29742800  0.30666100  1
  C  C75  1  0.12600300  0.71344000  0.81398000  1
  C  C76  1  0.05289400  0.09291500  0.16151900  1
  C  C77  1  0.06507300  0.90960400  0.66377800  1
  C  C78  1  0.01222100  0.58857900  0.39574700  1
  C  C79  1  0.01876700  0.41371000  0.89610100  1
