# generated using pymatgen
data_Cu3Ni5C16
_symmetry_space_group_name_H-M   'P 1'
_cell_length_a   5.83421900
_cell_length_b   5.84056322
_cell_length_c   19.35827538
_cell_angle_alpha   98.60148437
_cell_angle_beta   90.07533470
_cell_angle_gamma   119.91765303
_symmetry_Int_Tables_number   1
_chemical_formula_structural   Cu3Ni5C16
_chemical_formula_sum   'Cu6 Ni10 C32'
_cell_volume   563.08211319
_cell_formula_units_Z   2
loop_
 _symmetry_equiv_pos_site_id
 _symmetry_equiv_pos_as_xyz
  1  'x, y, z'
loop_
 _atom_site_type_symbol
 _atom_site_label
 _atom_site_symmetry_multiplicity
 _atom_site_fract_x
 _atom_site_fract_y
 _atom_site_fract_z
 _atom_site_occupancy
  Ni  Ni0  1  0.12504100  0.00007400  0.62498900  1
  Ni  Ni1  1  0.37490300  0.99999600  0.87504800  1
  Ni  Ni2  1  0.49991900  0.99983400  0.99998700  1
  Ni  Ni3  1  0.24925600  0.99932200  0.75025200  1
  Ni  Ni4  1  0.87498500  0.99992000  0.87502700  1
  Ni  Ni5  1  0.00085900  0.00091600  0.49974400  1
  Ni  Ni6  1  0.37508900  0.00088300  0.37508200  1
  Ni  Ni7  1  0.12483300  0.99903000  0.12491900  1
  Ni  Ni8  1  0.87565700  0.00084000  0.37505700  1
  Ni  Ni9  1  0.62430200  0.99904800  0.12491900  1
  Cu  Cu10  1  0.87461300  0.49968600  0.87506900  1
  Cu  Cu11  1  0.62513100  0.00012800  0.62498700  1
  Cu  Cu12  1  0.62510000  0.50008800  0.62494600  1
  Cu  Cu13  1  0.37499300  0.50003400  0.37518200  1
  Cu  Cu14  1  0.75003500  0.00008800  0.24999300  1
  Cu  Cu15  1  0.12539600  0.50019400  0.12475700  1
  C  C16  1  0.46275700  0.23325000  0.93381400  1
  C  C17  1  0.90238400  0.23288100  0.93392000  1
  C  C18  1  0.95715200  0.76601300  0.92609100  1
  C  C19  1  0.84672300  0.76665400  0.81633100  1
  C  C20  1  0.28681600  0.76643000  0.81632800  1
  C  C21  1  0.28553600  0.20468300  0.81638000  1
  C  C22  1  0.46408100  0.79540200  0.93379800  1
  C  C23  1  0.21220500  0.79593500  0.68429300  1
  C  C24  1  0.40334600  0.23412700  0.43370200  1
  C  C25  1  0.65078800  0.23362000  0.68414400  1
  C  C26  1  0.79274500  0.23385100  0.82395900  1
  C  C27  1  0.54171300  0.23323500  0.57416400  1
  C  C28  1  0.70840800  0.76690700  0.67576800  1
  C  C29  1  0.03792000  0.20425500  0.56571600  1
  C  C30  1  0.78710900  0.76765800  0.31656100  1
  C  C31  1  0.03755200  0.76720900  0.56620800  1
  C  C32  1  0.21273300  0.23308900  0.68372500  1
  C  C33  1  0.96370900  0.23421800  0.43371700  1
  C  C34  1  0.96423800  0.79527900  0.43383400  1
  C  C35  1  0.29287500  0.23387200  0.32379800  1
  C  C36  1  0.34779100  0.76784700  0.31647300  1
  C  C37  1  0.45763600  0.76665000  0.42593300  1
  C  C38  1  0.20699100  0.76583000  0.17616700  1
  C  C39  1  0.59939300  0.76667900  0.56579100  1
  C  C40  1  0.53594500  0.20451500  0.06605100  1
  C  C41  1  0.78499200  0.20472100  0.31716800  1
  C  C42  1  0.71284600  0.23230100  0.18345100  1
  C  C43  1  0.71502500  0.79519000  0.18279000  1
  C  C44  1  0.04239000  0.23351900  0.07413200  1
  C  C45  1  0.15223700  0.23192800  0.18354400  1
  C  C46  1  0.09748600  0.76628000  0.06610000  1
  C  C47  1  0.53636300  0.76588800  0.06619600  1
