# generated using pymatgen
data_CuNi2C15
_symmetry_space_group_name_H-M   'P 1'
_cell_length_a   5.27331800
_cell_length_b   12.75864500
_cell_length_c   13.93453151
_cell_angle_alpha   62.42623108
_cell_angle_beta   90.00000000
_cell_angle_gamma   90.00000000
_symmetry_Int_Tables_number   1
_chemical_formula_structural   CuNi2C15
_chemical_formula_sum   'Cu4 Ni8 C60'
_cell_volume   831.03300811
_cell_formula_units_Z   4
loop_
 _symmetry_equiv_pos_site_id
 _symmetry_equiv_pos_as_xyz
  1  'x, y, z'
loop_
 _atom_site_type_symbol
 _atom_site_label
 _atom_site_symmetry_multiplicity
 _atom_site_fract_x
 _atom_site_fract_y
 _atom_site_fract_z
 _atom_site_occupancy
  Ni  Ni0  1  0.93267900  0.97183700  0.87638400  1
  Ni  Ni1  1  0.56732100  0.97183700  0.37638400  1
  Ni  Ni2  1  0.06732100  0.02816300  0.12361600  1
  Ni  Ni3  1  0.43267900  0.02816300  0.62361600  1
  Ni  Ni4  1  0.11692100  0.33091100  0.85083400  1
  Ni  Ni5  1  0.61692100  0.66908900  0.64916600  1
  Ni  Ni6  1  0.88307900  0.66908900  0.14916600  1
  Ni  Ni7  1  0.38307900  0.33091100  0.35083400  1
  Cu  Cu8  1  0.10299700  0.52196700  0.59952100  1
  Cu  Cu9  1  0.39700300  0.52196700  0.09952100  1
  Cu  Cu10  1  0.89700300  0.47803300  0.40047900  1
  Cu  Cu11  1  0.60299700  0.47803300  0.90047900  1
  C  C12  1  0.06891500  0.75221000  0.38268700  1
  C  C13  1  0.56891500  0.24779000  0.11731300  1
  C  C14  1  0.93108500  0.24779000  0.61731300  1
  C  C15  1  0.43108500  0.75221000  0.88268700  1
  C  C16  1  0.36090200  0.60418700  0.29431000  1
  C  C17  1  0.10902900  0.85691500  0.55053900  1
  C  C18  1  0.39097100  0.85691500  0.05053900  1
  C  C19  1  0.89097100  0.14308500  0.44946100  1
  C  C20  1  0.63909800  0.39581300  0.70569000  1
  C  C21  1  0.13909800  0.60418700  0.79431000  1
  C  C22  1  0.60902900  0.14308500  0.94946100  1
  C  C23  1  0.86090200  0.39581300  0.20569000  1
  C  C24  1  0.92009000  0.62791200  0.94933100  1
  C  C25  1  0.42009000  0.37208800  0.55066900  1
  C  C26  1  0.57991000  0.62791200  0.44933100  1
  C  C27  1  0.07991000  0.37208800  0.05066900  1
  C  C28  1  0.44058000  0.14400100  0.77163100  1
  C  C29  1  0.94058000  0.85599900  0.72836900  1
  C  C30  1  0.55942000  0.85599900  0.22836900  1
  C  C31  1  0.05942000  0.14400100  0.27163100  1
  C  C32  1  0.59143800  0.42678900  0.78446200  1
  C  C33  1  0.57326000  0.60094500  0.36112500  1
  C  C34  1  0.92674000  0.60094500  0.86112500  1
  C  C35  1  0.42674000  0.39905500  0.63887500  1
  C  C36  1  0.21163400  0.14071500  0.72645700  1
  C  C37  1  0.71163400  0.85928500  0.77354300  1
  C  C38  1  0.78836600  0.85928500  0.27354300  1
  C  C39  1  0.28836600  0.14071500  0.22645700  1
  C  C40  1  0.90856200  0.42678900  0.28446200  1
  C  C41  1  0.07326000  0.39905500  0.13887500  1
  C  C42  1  0.40856200  0.57321100  0.21553800  1
  C  C43  1  0.09143800  0.57321100  0.71553800  1
  C  C44  1  0.16142600  0.87329900  0.77100400  1
  C  C45  1  0.66142600  0.12670100  0.72899600  1
  C  C46  1  0.83857400  0.12670100  0.22899600  1
  C  C47  1  0.33857400  0.87329900  0.27100400  1
  C  C48  1  0.18526800  0.37672200  0.50578200  1
  C  C49  1  0.68526800  0.62327800  0.99421800  1
  C  C50  1  0.81473200  0.62327800  0.49421800  1
  C  C51  1  0.31473200  0.37672200  0.00578200  1
  C  C52  1  0.00256500  0.14273400  0.53877900  1
  C  C53  1  0.50256500  0.85726600  0.96122100  1
  C  C54  1  0.99743500  0.85726600  0.46122100  1
  C  C55  1  0.49743500  0.14273400  0.03877900  1
  C  C56  1  0.62669600  0.36297400  0.18533100  1
  C  C57  1  0.12669600  0.63702600  0.31466900  1
  C  C58  1  0.37330400  0.63702600  0.81466900  1
  C  C59  1  0.87330400  0.36297400  0.68533100  1
  C  C60  1  0.63993900  0.12812400  0.43949600  1
  C  C61  1  0.13993900  0.87187600  0.06050400  1
  C  C62  1  0.36006100  0.87187600  0.56050400  1
  C  C63  1  0.86006100  0.12812400  0.93949600  1
  C  C64  1  0.63095200  0.34063100  0.51248300  1
  C  C65  1  0.13095200  0.65936900  0.98751700  1
  C  C66  1  0.42959900  0.15785700  0.86622800  1
  C  C67  1  0.86904800  0.34063100  0.01248300  1
  C  C68  1  0.07040100  0.15785700  0.36622800  1
  C  C69  1  0.57040100  0.84214300  0.13377200  1
  C  C70  1  0.92959900  0.84214300  0.63377200  1
  C  C71  1  0.36904800  0.65936900  0.48751700  1
