# generated using pymatgen
data_Cu2Ni3C23
_symmetry_space_group_name_H-M   'P 1'
_cell_length_a   5.91572716
_cell_length_b   5.91572716
_cell_length_c   9.73557506
_cell_angle_alpha   89.11357084
_cell_angle_beta   89.11357084
_cell_angle_gamma   60.03512918
_symmetry_Int_Tables_number   1
_chemical_formula_structural   Cu2Ni3C23
_chemical_formula_sum   'Cu2 Ni3 C23'
_cell_volume   295.11603464
_cell_formula_units_Z   1
loop_
 _symmetry_equiv_pos_site_id
 _symmetry_equiv_pos_as_xyz
  1  'x, y, z'
loop_
 _atom_site_type_symbol
 _atom_site_label
 _atom_site_symmetry_multiplicity
 _atom_site_fract_x
 _atom_site_fract_y
 _atom_site_fract_z
 _atom_site_occupancy
  C  C0  1  0.67336400  0.67336400  0.09350400  1
  C  C1  1  0.99301400  0.99301400  0.01621000  1
  C  C2  1  0.99691700  0.99691700  0.50635400  1
  C  C3  1  0.33538400  0.33538400  0.59381600  1
  Ni  Ni4  1  0.34543900  0.84605200  0.77754600  1
  Ni  Ni5  1  0.84605200  0.34543900  0.77754600  1
  Ni  Ni6  1  0.18153200  0.18153200  0.26292400  1
  Cu  Cu7  1  0.66166400  0.66166400  0.50083500  1
  Cu  Cu8  1  0.36162600  0.36162600  0.01381700  1
  C  C9  1  0.82873300  0.82873300  0.79105800  1
  C  C10  1  0.17263300  0.66215800  0.29682300  1
  C  C11  1  0.66215800  0.17263300  0.29682300  1
  C  C12  1  0.35038800  0.82669700  0.41327400  1
  C  C13  1  0.51715700  0.51715700  0.66582100  1
  C  C14  1  0.66194100  0.66194100  0.89080500  1
  C  C15  1  0.99506700  0.99506700  0.69722300  1
  C  C16  1  0.00038300  0.00038300  0.21012800  1
  C  C17  1  0.82669700  0.35038800  0.41327400  1
  C  C18  1  0.49601700  0.96272700  0.65240600  1
  C  C19  1  0.96272700  0.49601700  0.65240600  1
  C  C20  1  0.15995300  0.15995300  0.89512000  1
  C  C21  1  0.81748200  0.81748200  0.42986400  1
  C  C22  1  0.03654800  0.47086900  0.14959100  1
  C  C23  1  0.47086900  0.03654800  0.14959100  1
  C  C24  1  0.32927000  0.32927000  0.38829500  1
  C  C25  1  0.18150800  0.65085500  0.91189100  1
  C  C26  1  0.48395300  0.48395300  0.13331300  1
  C  C27  1  0.65085500  0.18150800  0.91189100  1
