# generated using pymatgen
data_Cu3NiC8
_symmetry_space_group_name_H-M   'P 1'
_cell_length_a   8.04414000
_cell_length_b   8.04414000
_cell_length_c   8.04414000
_cell_angle_alpha   90.00000000
_cell_angle_beta   90.00000000
_cell_angle_gamma   90.00000000
_symmetry_Int_Tables_number   1
_chemical_formula_structural   Cu3NiC8
_chemical_formula_sum   'Cu12 Ni4 C32'
_cell_volume   520.52172615
_cell_formula_units_Z   4
loop_
 _symmetry_equiv_pos_site_id
 _symmetry_equiv_pos_as_xyz
  1  'x, y, z'
loop_
 _atom_site_type_symbol
 _atom_site_label
 _atom_site_symmetry_multiplicity
 _atom_site_fract_x
 _atom_site_fract_y
 _atom_site_fract_z
 _atom_site_occupancy
  Ni  Ni0  1  0.12500000  0.87500000  0.37500000  1
  Ni  Ni1  1  0.37500000  0.12500000  0.87500000  1
  Ni  Ni2  1  0.62500000  0.62500000  0.62500000  1
  Ni  Ni3  1  0.87500000  0.37500000  0.12500000  1
  Cu  Cu4  1  0.12235900  0.12764100  0.62500000  1
  Cu  Cu5  1  0.12500000  0.37764100  0.87235900  1
  Cu  Cu6  1  0.12764100  0.62500000  0.12235900  1
  Cu  Cu7  1  0.37235900  0.37500000  0.62235900  1
  Cu  Cu8  1  0.37500000  0.62235900  0.37235900  1
  Cu  Cu9  1  0.37764100  0.87235900  0.12500000  1
  Cu  Cu10  1  0.62235900  0.37235900  0.37500000  1
  Cu  Cu11  1  0.62500000  0.12235900  0.12764100  1
  Cu  Cu12  1  0.62764100  0.87500000  0.87764100  1
  Cu  Cu13  1  0.87235900  0.12500000  0.37764100  1
  Cu  Cu14  1  0.87500000  0.87764100  0.62764100  1
  Cu  Cu15  1  0.87764100  0.62764100  0.87500000  1
  C  C16  1  0.10668700  0.11613900  0.39195100  1
  C  C17  1  0.10804900  0.89331300  0.61613900  1
  C  C18  1  0.11225800  0.61225800  0.88774200  1
  C  C19  1  0.13386100  0.14331300  0.85804900  1
  C  C20  1  0.11613900  0.39195100  0.10668700  1
  C  C21  1  0.13774200  0.36225800  0.63774200  1
  C  C22  1  0.14195100  0.63386100  0.35668700  1
  C  C23  1  0.14331300  0.85804900  0.13386100  1
  C  C24  1  0.35668700  0.14195100  0.63386100  1
  C  C25  1  0.35804900  0.36613900  0.85668700  1
  C  C26  1  0.36225800  0.63774200  0.13774200  1
  C  C27  1  0.38386100  0.60804900  0.60668700  1
  C  C28  1  0.36613900  0.85668700  0.35804900  1
  C  C29  1  0.38774200  0.38774200  0.38774200  1
  C  C30  1  0.39195100  0.10668700  0.11613900  1
  C  C31  1  0.39331300  0.88386100  0.89195100  1
  C  C32  1  0.60668700  0.38386100  0.60804900  1
  C  C33  1  0.60804900  0.60668700  0.38386100  1
  C  C34  1  0.61225800  0.88774200  0.11225800  1
  C  C35  1  0.63386100  0.35668700  0.14195100  1
  C  C36  1  0.61613900  0.10804900  0.89331300  1
  C  C37  1  0.63774200  0.13774200  0.36225800  1
  C  C38  1  0.64195100  0.86613900  0.64331300  1
  C  C39  1  0.64331300  0.64195100  0.86613900  1
  C  C40  1  0.85668700  0.35804900  0.36613900  1
  C  C41  1  0.85804900  0.13386100  0.14331300  1
  C  C42  1  0.86225800  0.86225800  0.86225800  1
  C  C43  1  0.88386100  0.89195100  0.39331300  1
  C  C44  1  0.86613900  0.64331300  0.64195100  1
  C  C45  1  0.88774200  0.11225800  0.61225800  1
  C  C46  1  0.89195100  0.39331300  0.88386100  1
  C  C47  1  0.89331300  0.61613900  0.10804900  1
