# generated using pymatgen
data_Cu4NiC6
_symmetry_space_group_name_H-M   'P 1'
_cell_length_a   11.13340200
_cell_length_b   6.73269500
_cell_length_c   9.04422739
_cell_angle_alpha   70.55838525
_cell_angle_beta   90.00000000
_cell_angle_gamma   90.00000000
_symmetry_Int_Tables_number   1
_chemical_formula_structural   Cu4NiC6
_chemical_formula_sum   'Cu8 Ni2 C12'
_cell_volume   639.28029560
_cell_formula_units_Z   2
loop_
 _symmetry_equiv_pos_site_id
 _symmetry_equiv_pos_as_xyz
  1  'x, y, z'
loop_
 _atom_site_type_symbol
 _atom_site_label
 _atom_site_symmetry_multiplicity
 _atom_site_fract_x
 _atom_site_fract_y
 _atom_site_fract_z
 _atom_site_occupancy
  Ni  Ni0  1  0.75000000  0.67825800  0.72113600  1
  Ni  Ni1  1  0.25000000  0.32174200  0.27886400  1
  Cu  Cu2  1  0.35235000  0.05730700  0.86045400  1
  Cu  Cu3  1  0.85235000  0.94269300  0.13954600  1
  Cu  Cu4  1  0.64765000  0.94269300  0.13954600  1
  Cu  Cu5  1  0.14765000  0.05730700  0.86045400  1
  Cu  Cu6  1  0.75000000  0.74687900  0.48634600  1
  Cu  Cu7  1  0.25000000  0.25312100  0.51365400  1
  Cu  Cu8  1  0.75000000  0.63846200  0.17095000  1
  Cu  Cu9  1  0.25000000  0.36153800  0.82905000  1
  C  C10  1  0.75000000  0.48216900  0.41485200  1
  C  C11  1  0.25000000  0.51783100  0.58514800  1
  C  C12  1  0.39800300  0.07809700  0.62984600  1
  C  C13  1  0.89800300  0.92190300  0.37015400  1
  C  C14  1  0.60199700  0.92190300  0.37015400  1
  C  C15  1  0.10199700  0.07809700  0.62984600  1
  C  C16  1  0.75000000  0.95815000  0.75931600  1
  C  C17  1  0.25000000  0.04185000  0.24068400  1
  C  C18  1  0.40064000  0.48617800  0.20216100  1
  C  C19  1  0.90064000  0.51382200  0.79783900  1
  C  C20  1  0.59936000  0.51382200  0.79783900  1
  C  C21  1  0.09936000  0.48617800  0.20216100  1
