# generated using pymatgen
data_Cu7NiC48
_symmetry_space_group_name_H-M   'P 1'
_cell_length_a   12.18012000
_cell_length_b   4.75597800
_cell_length_c   10.45837595
_cell_angle_alpha   89.96501456
_cell_angle_beta   90.00000000
_cell_angle_gamma   90.00000000
_symmetry_Int_Tables_number   1
_chemical_formula_structural   Cu7NiC48
_chemical_formula_sum   'Cu7 Ni1 C48'
_cell_volume   605.83669209
_cell_formula_units_Z   1
loop_
 _symmetry_equiv_pos_site_id
 _symmetry_equiv_pos_as_xyz
  1  'x, y, z'
loop_
 _atom_site_type_symbol
 _atom_site_label
 _atom_site_symmetry_multiplicity
 _atom_site_fract_x
 _atom_site_fract_y
 _atom_site_fract_z
 _atom_site_occupancy
  C  C0  1  0.62525500  0.00008800  0.00044800  1
  C  C1  1  0.12498700  0.99992700  0.99999000  1
  C  C2  1  0.37474500  0.00008800  0.00044800  1
  C  C3  1  0.87501300  0.99992700  0.99999000  1
  C  C4  1  0.37446500  0.50030000  0.49975400  1
  C  C5  1  0.12486400  0.49988300  0.49997200  1
  C  C6  1  0.87513600  0.49988300  0.49997200  1
  C  C7  1  0.62553500  0.50030000  0.49975400  1
  Ni  Ni8  1  0.50000000  0.97639000  0.71846300  1
  Cu  Cu9  1  0.00000000  0.97374500  0.71824300  1
  Cu  Cu10  1  0.00000000  0.52625300  0.21845100  1
  Cu  Cu11  1  0.50000000  0.52667000  0.21837100  1
  Cu  Cu12  1  0.24939600  0.47388700  0.78158500  1
  Cu  Cu13  1  0.75060400  0.47388700  0.78158500  1
  Cu  Cu14  1  0.24979900  0.02619300  0.28156100  1
  Cu  Cu15  1  0.75020100  0.02619300  0.28156100  1
  C  C16  1  0.24907600  0.91583200  0.59416800  1
  C  C17  1  0.75092400  0.91583200  0.59416800  1
  C  C18  1  0.25000000  0.58259900  0.09468300  1
  C  C19  1  0.75000000  0.58259900  0.09468300  1
  C  C20  1  0.00000000  0.41750000  0.90552100  1
  C  C21  1  0.50000000  0.41852800  0.90755500  1
  C  C22  1  0.50000000  0.08355300  0.40431400  1
  C  C23  1  0.00000000  0.08255900  0.40527200  1
  C  C24  1  0.24935700  0.79347500  0.45618100  1
  C  C25  1  0.75064300  0.79347500  0.45618100  1
  C  C26  1  0.14706300  0.78370400  0.66460000  1
  C  C27  1  0.65047200  0.77714500  0.66441200  1
  C  C28  1  0.85293700  0.78370400  0.66460000  1
  C  C29  1  0.34952800  0.77714500  0.66441200  1
  C  C30  1  0.50000000  0.76076000  0.40307700  1
  C  C31  1  0.00000000  0.75981300  0.40286400  1
  C  C32  1  0.50000000  0.74113100  0.90505000  1
  C  C33  1  0.00000000  0.74037300  0.90300100  1
  C  C34  1  0.14843300  0.71649600  0.16520500  1
  C  C35  1  0.35161600  0.71635800  0.16514200  1
  C  C36  1  0.85156700  0.71649600  0.16520500  1
  C  C37  1  0.64838400  0.71635800  0.16514200  1
  C  C38  1  0.24987300  0.70718000  0.95685600  1
  C  C39  1  0.75012700  0.70718000  0.95685600  1
  C  C40  1  0.50000000  0.29164400  0.04444000  1
  C  C41  1  0.00000000  0.29306600  0.04309400  1
  C  C42  1  0.39829800  0.28706500  0.83637600  1
  C  C43  1  0.60170200  0.28706500  0.83637600  1
  C  C44  1  0.89838200  0.28370900  0.83486800  1
  C  C45  1  0.10161800  0.28370900  0.83486800  1
  C  C46  1  0.24997700  0.25980100  0.09705600  1
  C  C47  1  0.75002300  0.25980100  0.09705600  1
  C  C48  1  0.25015100  0.23877600  0.59717600  1
  C  C49  1  0.74984900  0.23877600  0.59717600  1
  C  C50  1  0.39826300  0.21649800  0.33402000  1
  C  C51  1  0.60173700  0.21649800  0.33402000  1
  C  C52  1  0.89844700  0.21658800  0.33471200  1
  C  C53  1  0.10155300  0.21658800  0.33471200  1
  C  C54  1  0.50000000  0.20984400  0.54173600  1
  C  C55  1  0.00000000  0.20716900  0.54301800  1
