# generated using pymatgen
data_Cu(NiC8)3
_symmetry_space_group_name_H-M   'P 1'
_cell_length_a   6.23068100
_cell_length_b   4.79034900
_cell_length_c   10.66667123
_cell_angle_alpha   89.98818812
_cell_angle_beta   90.00000000
_cell_angle_gamma   90.00000000
_symmetry_Int_Tables_number   1
_chemical_formula_structural   Cu(NiC8)3
_chemical_formula_sum   'Cu1 Ni3 C24'
_cell_volume   318.36958531
_cell_formula_units_Z   1
loop_
 _symmetry_equiv_pos_site_id
 _symmetry_equiv_pos_as_xyz
  1  'x, y, z'
loop_
 _atom_site_type_symbol
 _atom_site_label
 _atom_site_symmetry_multiplicity
 _atom_site_fract_x
 _atom_site_fract_y
 _atom_site_fract_z
 _atom_site_occupancy
  C  C0  1  0.24853700  0.99999700  0.00208600  1
  C  C1  1  0.75146300  0.99999700  0.00208600  1
  C  C2  1  0.74694700  0.50090300  0.50066800  1
  C  C3  1  0.25305300  0.50090300  0.50066800  1
  Ni  Ni4  1  0.00000000  0.02817200  0.28059900  1
  Ni  Ni5  1  0.00000000  0.47615500  0.78059900  1
  Ni  Ni6  1  0.50000000  0.52847900  0.21858100  1
  Cu  Cu7  1  0.50000000  0.97216700  0.72309600  1
  C  C8  1  0.50000000  0.09080800  0.40517200  1
  C  C9  1  0.50000000  0.41160100  0.91075700  1
  C  C10  1  0.00000000  0.59016000  0.09210500  1
  C  C11  1  0.00000000  0.90683900  0.58908700  1
  C  C12  1  0.50000000  0.21476800  0.54033300  1
  C  C13  1  0.30057500  0.22291600  0.33674400  1
  C  C14  1  0.69942500  0.22291600  0.33674400  1
  C  C15  1  0.00000000  0.22751300  0.59706300  1
  C  C16  1  0.00000000  0.26917200  0.09642300  1
  C  C17  1  0.29779700  0.28294900  0.84207100  1
  C  C18  1  0.70220300  0.28294900  0.84207100  1
  C  C19  1  0.50000000  0.28585200  0.04496900  1
  C  C20  1  0.00000000  0.71129800  0.95621600  1
  C  C21  1  0.80071500  0.72233200  0.16052300  1
  C  C22  1  0.19928500  0.72233200  0.16052300  1
  C  C23  1  0.50000000  0.73274300  0.91150800  1
  C  C24  1  0.50000000  0.77002300  0.40136500  1
  C  C25  1  0.80386100  0.76742500  0.65745200  1
  C  C26  1  0.19613900  0.76742500  0.65745200  1
  C  C27  1  0.00000000  0.79120600  0.45303800  1
