# generated using pymatgen
data_Cu8Ni2C5
_symmetry_space_group_name_H-M   'P 1'
_cell_length_a   13.88428300
_cell_length_b   7.72958200
_cell_length_c   10.32185299
_cell_angle_alpha   86.54174242
_cell_angle_beta   90.00000000
_cell_angle_gamma   90.00000000
_symmetry_Int_Tables_number   1
_chemical_formula_structural   Cu8Ni2C5
_chemical_formula_sum   'Cu16 Ni4 C10'
_cell_volume   1105.72102712
_cell_formula_units_Z   2
loop_
 _symmetry_equiv_pos_site_id
 _symmetry_equiv_pos_as_xyz
  1  'x, y, z'
loop_
 _atom_site_type_symbol
 _atom_site_label
 _atom_site_symmetry_multiplicity
 _atom_site_fract_x
 _atom_site_fract_y
 _atom_site_fract_z
 _atom_site_occupancy
  C  C0  1  0.13073600  0.82278300  0.67762800  1
  C  C1  1  0.63073600  0.17721700  0.82237200  1
  C  C2  1  0.86926400  0.17721700  0.32237200  1
  C  C3  1  0.36926400  0.82278300  0.17762800  1
  C  C4  1  0.34560700  0.27224000  0.53676100  1
  C  C5  1  0.84560700  0.72776000  0.96323900  1
  C  C6  1  0.65439300  0.72776000  0.46323900  1
  C  C7  1  0.15439300  0.27224000  0.03676100  1
  Ni  Ni8  1  0.42005500  0.76219000  0.75865800  1
  Ni  Ni9  1  0.92005500  0.23781000  0.74134200  1
  Ni  Ni10  1  0.57994500  0.23781000  0.24134200  1
  Ni  Ni11  1  0.07994500  0.76219000  0.25865800  1
  C  C12  1  0.00000000  0.50000000  0.50000000  1
  C  C13  1  0.50000000  0.50000000  0.00000000  1
  Cu  Cu14  1  0.07225700  0.31336600  0.67633900  1
  Cu  Cu15  1  0.57225700  0.68663400  0.82366100  1
  Cu  Cu16  1  0.92774300  0.68663400  0.32366100  1
  Cu  Cu17  1  0.42774300  0.31336600  0.17633900  1
  Cu  Cu18  1  0.39437500  0.76276300  0.54943000  1
  Cu  Cu19  1  0.89437500  0.23723700  0.95057000  1
  Cu  Cu20  1  0.60562500  0.23723700  0.45057000  1
  Cu  Cu21  1  0.10562500  0.76276300  0.04943000  1
  Cu  Cu22  1  0.14646300  0.52766400  0.36252900  1
  Cu  Cu23  1  0.64646300  0.47233600  0.13747100  1
  Cu  Cu24  1  0.85353700  0.47233600  0.63747100  1
  Cu  Cu25  1  0.35353700  0.52766400  0.86252900  1
  Cu  Cu26  1  0.37423600  0.00583300  0.83759000  1
  Cu  Cu27  1  0.87423600  0.99416700  0.66241000  1
  Cu  Cu28  1  0.62576400  0.99416700  0.16241000  1
  Cu  Cu29  1  0.12576400  0.00583300  0.33759000  1
