# generated using pymatgen
data_Cu19Ni5C32
_symmetry_space_group_name_H-M   'P 1'
_cell_length_a   19.15135436
_cell_length_b   19.15135436
_cell_length_c   19.15135439
_cell_angle_alpha   17.34289316
_cell_angle_beta   17.34289316
_cell_angle_gamma   17.34289361
_symmetry_Int_Tables_number   1
_chemical_formula_structural   Cu19Ni5C32
_chemical_formula_sum   'Cu19 Ni5 C32'
_cell_volume   544.65991016
_cell_formula_units_Z   1
loop_
 _symmetry_equiv_pos_site_id
 _symmetry_equiv_pos_as_xyz
  1  'x, y, z'
loop_
 _atom_site_type_symbol
 _atom_site_label
 _atom_site_symmetry_multiplicity
 _atom_site_fract_x
 _atom_site_fract_y
 _atom_site_fract_z
 _atom_site_occupancy
  Ni  Ni0  1  0.00002200  0.00002200  0.00002200  1
  Ni  Ni1  1  0.68749400  0.68749400  0.68749400  1
  Ni  Ni2  1  0.74999600  0.74999600  0.74999600  1
  Ni  Ni3  1  0.18751500  0.18751500  0.18751500  1
  Ni  Ni4  1  0.24996600  0.24996600  0.24996600  1
  Cu  Cu5  1  0.34375400  0.34375400  0.34375400  1
  Cu  Cu6  1  0.21889500  0.21889500  0.71858900  1
  Cu  Cu7  1  0.21889500  0.71858900  0.21889500  1
  Cu  Cu8  1  0.71858900  0.21889500  0.21889500  1
  Cu  Cu9  1  0.43747200  0.43747200  0.43747200  1
  Cu  Cu10  1  0.09378400  0.09378400  0.09378400  1
  Cu  Cu11  1  0.21874300  0.71875600  0.71875600  1
  Cu  Cu12  1  0.96874400  0.46876300  0.96874400  1
  Cu  Cu13  1  0.46876300  0.96874400  0.96874400  1
  Cu  Cu14  1  0.71875600  0.71875600  0.21874300  1
  Cu  Cu15  1  0.84373200  0.84373200  0.84373200  1
  Cu  Cu16  1  0.96874400  0.96874400  0.46876300  1
  Cu  Cu17  1  0.50002900  0.50002900  0.50002900  1
  Cu  Cu18  1  0.71875600  0.21874300  0.71875600  1
  Cu  Cu19  1  0.46873600  0.96861700  0.46873600  1
  Cu  Cu20  1  0.93750100  0.93750100  0.93750100  1
  Cu  Cu21  1  0.59375900  0.59375900  0.59375900  1
  Cu  Cu22  1  0.46873600  0.46873600  0.96861700  1
  Cu  Cu23  1  0.96861700  0.46873600  0.46873600  1
  C  C24  1  0.07074600  0.51333500  0.51333500  1
  C  C25  1  0.40284100  0.40284100  0.40284100  1
  C  C26  1  0.51333500  0.51333500  0.07074600  1
  C  C27  1  0.03485500  0.03485500  0.03485500  1
  C  C28  1  0.36701400  0.92411000  0.92411000  1
  C  C29  1  0.92411000  0.36701400  0.92411000  1
  C  C30  1  0.11836000  0.67349800  0.67349800  1
  C  C31  1  0.26401800  0.81911000  0.26401800  1
  C  C32  1  0.51333500  0.07074600  0.51333500  1
  C  C33  1  0.15264400  0.15264400  0.15264400  1
  C  C34  1  0.26401800  0.26401800  0.81911000  1
  C  C35  1  0.01335700  0.01335700  0.57067100  1
  C  C36  1  0.67349800  0.67349800  0.11836000  1
  C  C37  1  0.78485900  0.78485900  0.78485900  1
  C  C38  1  0.92411000  0.92411000  0.36701400  1
  C  C39  1  0.67349800  0.11836000  0.67349800  1
  C  C40  1  0.42414400  0.86682900  0.42414400  1
  C  C41  1  0.57067100  0.01335700  0.01335700  1
  C  C42  1  0.01335700  0.57067100  0.01335700  1
  C  C43  1  0.81911000  0.26401800  0.26401800  1
  C  C44  1  0.90283700  0.90283700  0.90283700  1
  C  C45  1  0.17412300  0.17412300  0.61688500  1
  C  C46  1  0.53467300  0.53467300  0.53467300  1
  C  C47  1  0.42414400  0.42414400  0.86682900  1
  C  C48  1  0.28478800  0.28478800  0.28478800  1
  C  C49  1  0.61688500  0.17412300  0.17412300  1
  C  C50  1  0.17412300  0.61688500  0.17412300  1
  C  C51  1  0.86682900  0.42414400  0.42414400  1
  C  C52  1  0.31915500  0.76397800  0.76397800  1
  C  C53  1  0.76397800  0.31915500  0.76397800  1
  C  C54  1  0.65261000  0.65261000  0.65261000  1
  C  C55  1  0.76397800  0.76397800  0.31915500  1
