# generated using pymatgen
data_Cu2Ni2C3
_symmetry_space_group_name_H-M   'P 1'
_cell_length_a   5.52917780
_cell_length_b   5.52917780
_cell_length_c   6.50747993
_cell_angle_alpha   75.82896775
_cell_angle_beta   75.82896775
_cell_angle_gamma   39.08493250
_symmetry_Int_Tables_number   1
_chemical_formula_structural   Cu2Ni2C3
_chemical_formula_sum   'Cu2 Ni2 C3'
_cell_volume   121.12311546
_cell_formula_units_Z   1
loop_
 _symmetry_equiv_pos_site_id
 _symmetry_equiv_pos_as_xyz
  1  'x, y, z'
loop_
 _atom_site_type_symbol
 _atom_site_label
 _atom_site_symmetry_multiplicity
 _atom_site_fract_x
 _atom_site_fract_y
 _atom_site_fract_z
 _atom_site_occupancy
  C  C0  1  0.00000000  0.00000000  0.00000000  1
  Ni  Ni1  1  0.76285000  0.76285000  0.80205300  1
  Ni  Ni2  1  0.23715000  0.23715000  0.19794700  1
  Cu  Cu3  1  0.38465500  0.38465500  0.24438200  1
  Cu  Cu4  1  0.61534500  0.61534500  0.75561800  1
  C  C5  1  0.86623800  0.86623800  0.84393400  1
  C  C6  1  0.13376200  0.13376200  0.15606600  1
