# generated using pymatgen
data_Cu5Ni3C4
_symmetry_space_group_name_H-M   'P 1'
_cell_length_a   10.07937357
_cell_length_b   10.07937357
_cell_length_c   4.80012502
_cell_angle_alpha   86.09769322
_cell_angle_beta   86.09769322
_cell_angle_gamma   35.73693416
_symmetry_Int_Tables_number   1
_chemical_formula_structural   Cu5Ni3C4
_chemical_formula_sum   'Cu10 Ni6 C8'
_cell_volume   284.09749092
_cell_formula_units_Z   2
loop_
 _symmetry_equiv_pos_site_id
 _symmetry_equiv_pos_as_xyz
  1  'x, y, z'
loop_
 _atom_site_type_symbol
 _atom_site_label
 _atom_site_symmetry_multiplicity
 _atom_site_fract_x
 _atom_site_fract_y
 _atom_site_fract_z
 _atom_site_occupancy
  C  C0  1  0.88010500  0.36435700  0.51122100  1
  C  C1  1  0.60841700  0.13578400  0.51053400  1
  C  C2  1  0.13578400  0.60841700  0.51053400  1
  C  C3  1  0.36435700  0.88010500  0.51122100  1
  C  C4  1  0.49988800  0.49988800  0.99945400  1
  C  C5  1  0.24726300  0.24726300  0.00889800  1
  C  C6  1  0.00255600  0.00255600  0.98960600  1
  C  C7  1  0.75669600  0.75669600  0.97599800  1
  Ni  Ni8  1  0.57640600  0.57640600  0.69829300  1
  Ni  Ni9  1  0.83180300  0.83180300  0.67479500  1
  Ni  Ni10  1  0.07603900  0.07603900  0.68865700  1
  Ni  Ni11  1  0.32229000  0.32229000  0.70857300  1
  Ni  Ni12  1  0.42426300  0.42426300  0.30158500  1
  Ni  Ni13  1  0.17385300  0.17385300  0.30052900  1
  Cu  Cu14  1  0.95594100  0.44199700  0.80161300  1
  Cu  Cu15  1  0.44199700  0.95594100  0.80161300  1
  Cu  Cu16  1  0.68722400  0.21163900  0.80008700  1
  Cu  Cu17  1  0.21163900  0.68722400  0.80008700  1
  Cu  Cu18  1  0.92599900  0.92599900  0.29591500  1
  Cu  Cu19  1  0.67642800  0.67642800  0.30005200  1
  Cu  Cu20  1  0.53940600  0.05891400  0.20438300  1
  Cu  Cu21  1  0.31420800  0.78695300  0.20103800  1
  Cu  Cu22  1  0.05891400  0.53940600  0.20438300  1
  Cu  Cu23  1  0.78695300  0.31420800  0.20103800  1
