# generated using pymatgen
data_CuNiC4
_symmetry_space_group_name_H-M   'P 1'
_cell_length_a   9.09102600
_cell_length_b   11.11802100
_cell_length_c   11.47795300
_cell_angle_alpha   90.00000000
_cell_angle_beta   90.00000000
_cell_angle_gamma   90.00000000
_symmetry_Int_Tables_number   1
_chemical_formula_structural   CuNiC4
_chemical_formula_sum   'Cu4 Ni4 C16'
_cell_volume   1160.12512348
_cell_formula_units_Z   4
loop_
 _symmetry_equiv_pos_site_id
 _symmetry_equiv_pos_as_xyz
  1  'x, y, z'
loop_
 _atom_site_type_symbol
 _atom_site_label
 _atom_site_symmetry_multiplicity
 _atom_site_fract_x
 _atom_site_fract_y
 _atom_site_fract_z
 _atom_site_occupancy
  Ni  Ni0  1  0.18071200  0.75000000  0.75000000  1
  Ni  Ni1  1  0.31928800  0.75000000  0.25000000  1
  Ni  Ni2  1  0.68071200  0.25000000  0.75000000  1
  Ni  Ni3  1  0.81928800  0.25000000  0.25000000  1
  Cu  Cu4  1  0.25000000  0.18342700  0.00000000  1
  Cu  Cu5  1  0.25000000  0.31657300  0.50000000  1
  Cu  Cu6  1  0.75000000  0.68342700  0.50000000  1
  Cu  Cu7  1  0.75000000  0.81657300  0.00000000  1
  C  C8  1  0.03699200  0.68988600  0.03285400  1
  C  C9  1  0.03699200  0.81011400  0.46714600  1
  C  C10  1  0.14520500  0.04445300  0.20799600  1
  C  C11  1  0.14520500  0.45554700  0.29200400  1
  C  C12  1  0.35479500  0.04445300  0.79200400  1
  C  C13  1  0.35479500  0.45554700  0.70799600  1
  C  C14  1  0.46300800  0.81011400  0.53285400  1
  C  C15  1  0.46300800  0.68988600  0.96714600  1
  C  C16  1  0.53699200  0.31011400  0.03285400  1
  C  C17  1  0.53699200  0.18988600  0.46714600  1
  C  C18  1  0.64520500  0.54445300  0.29200400  1
  C  C19  1  0.64520500  0.95554700  0.20799600  1
  C  C20  1  0.85479500  0.54445300  0.70799600  1
  C  C21  1  0.85479500  0.95554700  0.79200400  1
  C  C22  1  0.96300800  0.18988600  0.53285400  1
  C  C23  1  0.96300800  0.31011400  0.96714600  1
