# generated using pymatgen
data_Cu4Ni2C9
_symmetry_space_group_name_H-M   'P 1'
_cell_length_a   5.18463700
_cell_length_b   8.96453600
_cell_length_c   14.53779400
_cell_angle_alpha   90.00000000
_cell_angle_beta   90.00000000
_cell_angle_gamma   90.00000000
_symmetry_Int_Tables_number   1
_chemical_formula_structural   Cu4Ni2C9
_chemical_formula_sum   'Cu16 Ni8 C36'
_cell_volume   675.68562742
_cell_formula_units_Z   4
loop_
 _symmetry_equiv_pos_site_id
 _symmetry_equiv_pos_as_xyz
  1  'x, y, z'
loop_
 _atom_site_type_symbol
 _atom_site_label
 _atom_site_symmetry_multiplicity
 _atom_site_fract_x
 _atom_site_fract_y
 _atom_site_fract_z
 _atom_site_occupancy
  Ni  Ni0  1  0.00028900  0.02221500  0.14491100  1
  Ni  Ni1  1  0.00028900  0.97778500  0.35508900  1
  Ni  Ni2  1  0.49971100  0.47778500  0.64491100  1
  Ni  Ni3  1  0.49971100  0.52221500  0.85508900  1
  Ni  Ni4  1  0.50028900  0.52221500  0.35508900  1
  Ni  Ni5  1  0.50028900  0.47778500  0.14491100  1
  Ni  Ni6  1  0.99971100  0.02221500  0.64491100  1
  Ni  Ni7  1  0.99971100  0.97778500  0.85508900  1
  Cu  Cu8  1  0.99851800  0.33614500  0.30749300  1
  Cu  Cu9  1  0.99851800  0.66385500  0.19250700  1
  Cu  Cu10  1  0.99669400  0.66336900  0.49785800  1
  Cu  Cu11  1  0.99669400  0.33663100  0.00214200  1
  Cu  Cu12  1  0.50330600  0.16336900  0.50214200  1
  Cu  Cu13  1  0.50330600  0.83663100  0.99785800  1
  Cu  Cu14  1  0.50148200  0.83614500  0.69250700  1
  Cu  Cu15  1  0.50148200  0.16385500  0.80749300  1
  Cu  Cu16  1  0.49851800  0.83614500  0.19250700  1
  Cu  Cu17  1  0.49851800  0.16385500  0.30749300  1
  Cu  Cu18  1  0.49669400  0.16336900  0.00214200  1
  Cu  Cu19  1  0.49669400  0.83663100  0.49785800  1
  Cu  Cu20  1  0.00330600  0.33663100  0.50214200  1
  Cu  Cu21  1  0.00330600  0.66336900  0.99785800  1
  Cu  Cu22  1  0.00148200  0.66385500  0.69250700  1
  Cu  Cu23  1  0.00148200  0.33614500  0.80749300  1
  C  C24  1  0.85457100  0.14620900  0.74967500  1
  C  C25  1  0.85457100  0.85379100  0.75032500  1
  C  C26  1  0.83698500  0.16817900  0.07340800  1
  C  C27  1  0.83698500  0.83182100  0.42659200  1
  C  C28  1  0.82791300  0.49392800  0.41352400  1
  C  C29  1  0.82791300  0.50607200  0.08647600  1
  C  C30  1  0.82591100  0.16072600  0.40405000  1
  C  C31  1  0.82591100  0.83927400  0.09595000  1
  C  C32  1  0.78474900  0.50000000  0.75000000  1
  C  C33  1  0.71525100  0.00000000  0.25000000  1
  C  C34  1  0.67408900  0.33927400  0.90405000  1
  C  C35  1  0.67408900  0.66072600  0.59595000  1
  C  C36  1  0.67208700  0.99392800  0.58647600  1
  C  C37  1  0.67208700  0.00607200  0.91352400  1
  C  C38  1  0.66301500  0.33182100  0.57340800  1
  C  C39  1  0.66301500  0.66817900  0.92659200  1
  C  C40  1  0.64542900  0.35379100  0.24967500  1
  C  C41  1  0.64542900  0.64620900  0.25032500  1
  C  C42  1  0.35457100  0.64620900  0.75032500  1
  C  C43  1  0.35457100  0.35379100  0.74967500  1
  C  C44  1  0.33698500  0.66817900  0.42659200  1
  C  C45  1  0.33698500  0.33182100  0.07340800  1
  C  C46  1  0.32791300  0.00607200  0.41352400  1
  C  C47  1  0.32791300  0.99392800  0.08647600  1
  C  C48  1  0.32591100  0.33927400  0.40405000  1
  C  C49  1  0.32591100  0.66072600  0.09595000  1
  C  C50  1  0.28474900  0.00000000  0.75000000  1
  C  C51  1  0.21525100  0.50000000  0.25000000  1
  C  C52  1  0.17408900  0.16072600  0.90405000  1
  C  C53  1  0.17408900  0.83927400  0.59595000  1
  C  C54  1  0.17208700  0.49392800  0.91352400  1
  C  C55  1  0.17208700  0.50607200  0.58647600  1
  C  C56  1  0.16301500  0.16817900  0.57340800  1
  C  C57  1  0.16301500  0.83182100  0.92659200  1
  C  C58  1  0.14542900  0.14620900  0.24967500  1
  C  C59  1  0.14542900  0.85379100  0.25032500  1
