# generated using pymatgen
data_Cu6(NiC4)5
_symmetry_space_group_name_H-M   'P 1'
_cell_length_a   9.33784635
_cell_length_b   9.33784635
_cell_length_c   9.33784639
_cell_angle_alpha   43.55420994
_cell_angle_beta   43.55420994
_cell_angle_gamma   43.55420981
_symmetry_Int_Tables_number   1
_chemical_formula_structural   Cu6(NiC4)5
_chemical_formula_sum   'Cu6 Ni5 C20'
_cell_volume   350.78770388
_cell_formula_units_Z   1
loop_
 _symmetry_equiv_pos_site_id
 _symmetry_equiv_pos_as_xyz
  1  'x, y, z'
loop_
 _atom_site_type_symbol
 _atom_site_label
 _atom_site_symmetry_multiplicity
 _atom_site_fract_x
 _atom_site_fract_y
 _atom_site_fract_z
 _atom_site_occupancy
  C  C0  1  0.33676900  0.33676900  0.33676900  1
  C  C1  1  0.66323100  0.66323100  0.66323100  1
  C  C2  1  0.46750400  0.75285100  0.60951200  1
  C  C3  1  0.60951200  0.46750400  0.75285100  1
  C  C4  1  0.75285100  0.60951200  0.46750400  1
  C  C5  1  0.87353000  0.87353000  0.87353000  1
  C  C6  1  0.01722700  0.25153200  0.27214400  1
  C  C7  1  0.27214400  0.01722700  0.25153200  1
  C  C8  1  0.25153200  0.27214400  0.01722700  1
  C  C9  1  0.74846800  0.98277300  0.72785600  1
  C  C10  1  0.72785600  0.74846800  0.98277300  1
  C  C11  1  0.98277300  0.72785600  0.74846800  1
  C  C12  1  0.12647000  0.12647000  0.12647000  1
  C  C13  1  0.24714900  0.53249600  0.39048800  1
  C  C14  1  0.39048800  0.24714900  0.53249600  1
  C  C15  1  0.53249600  0.39048800  0.24714900  1
  C  C16  1  0.00000000  0.00000000  0.00000000  1
  Ni  Ni17  1  0.62228800  0.62228800  0.62228800  1
  Ni  Ni18  1  0.16739500  0.16739500  0.16739500  1
  Ni  Ni19  1  0.50000000  0.50000000  0.50000000  1
  Ni  Ni20  1  0.83260500  0.83260500  0.83260500  1
  Ni  Ni21  1  0.37771200  0.37771200  0.37771200  1
  Cu  Cu22  1  0.11470300  0.08908700  0.62484900  1
  Cu  Cu23  1  0.08908700  0.62484900  0.11470300  1
  Cu  Cu24  1  0.62484900  0.11470300  0.08908700  1
  Cu  Cu25  1  0.37515100  0.91091300  0.88529700  1
  Cu  Cu26  1  0.91091300  0.88529700  0.37515100  1
  Cu  Cu27  1  0.88529700  0.37515100  0.91091300  1
  C  C28  1  0.68351100  0.31648900  0.50000000  1
  C  C29  1  0.50000000  0.68351100  0.31648900  1
  C  C30  1  0.31648900  0.50000000  0.68351100  1
