# generated using pymatgen
data_CuNiC4
_symmetry_space_group_name_H-M   'P 1'
_cell_length_a   7.21451035
_cell_length_b   7.93225200
_cell_length_c   9.55495429
_cell_angle_alpha   89.99835728
_cell_angle_beta   100.58853628
_cell_angle_gamma   90.00079754
_symmetry_Int_Tables_number   1
_chemical_formula_structural   CuNiC4
_chemical_formula_sum   'Cu8 Ni8 C32'
_cell_volume   537.49345971
_cell_formula_units_Z   8
loop_
 _symmetry_equiv_pos_site_id
 _symmetry_equiv_pos_as_xyz
  1  'x, y, z'
loop_
 _atom_site_type_symbol
 _atom_site_label
 _atom_site_symmetry_multiplicity
 _atom_site_fract_x
 _atom_site_fract_y
 _atom_site_fract_z
 _atom_site_occupancy
  C  C0  1  0.50033300  0.50036900  0.00025400  1
  C  C1  1  0.00049800  0.99964400  0.50007800  1
  C  C2  1  0.99998500  0.99991400  0.99997600  1
  C  C3  1  0.49991800  0.50004000  0.49986500  1
  Ni  Ni4  1  0.66791800  0.12225100  0.18666900  1
  Ni  Ni5  1  0.16791000  0.62221500  0.18663500  1
  Ni  Ni6  1  0.33212200  0.12222200  0.31331100  1
  Ni  Ni7  1  0.83207400  0.62214100  0.31329700  1
  Ni  Ni8  1  0.66797700  0.87778300  0.68672100  1
  Ni  Ni9  1  0.16788500  0.37776600  0.68664100  1
  Ni  Ni10  1  0.33208800  0.87783300  0.81331100  1
  Ni  Ni11  1  0.83206400  0.37777900  0.81333400  1
  Cu  Cu12  1  0.70373800  0.79639700  0.14408200  1
  Cu  Cu13  1  0.20371100  0.29630800  0.14408900  1
  Cu  Cu14  1  0.29626100  0.79630900  0.35591200  1
  Cu  Cu15  1  0.79628500  0.29626300  0.35590000  1
  Cu  Cu16  1  0.70375000  0.20368700  0.64410500  1
  Cu  Cu17  1  0.20377200  0.70361400  0.64409100  1
  Cu  Cu18  1  0.29622900  0.20372600  0.85588800  1
  Cu  Cu19  1  0.79620500  0.70363600  0.85596600  1
  C  C20  1  0.49998800  0.03009300  0.24998700  1
  C  C21  1  0.00001400  0.53008700  0.24999400  1
  C  C22  1  0.49998100  0.96990300  0.74997600  1
  C  C23  1  0.99997000  0.46990300  0.74998900  1
  C  C24  1  0.59464600  0.27473400  0.10224200  1
  C  C25  1  0.09467900  0.77475400  0.10228900  1
  C  C26  1  0.40528400  0.27475200  0.39768900  1
  C  C27  1  0.90526300  0.77461700  0.39774400  1
  C  C28  1  0.59471200  0.72532100  0.60225700  1
  C  C29  1  0.09463900  0.22529600  0.60220200  1
  C  C30  1  0.40523800  0.72527500  0.89766600  1
  C  C31  1  0.90530000  0.22528700  0.89774100  1
  C  C32  1  0.75478300  0.98181000  0.11195400  1
  C  C33  1  0.25478700  0.48182900  0.11190600  1
  C  C34  1  0.24524400  0.98180200  0.38805400  1
  C  C35  1  0.74511400  0.48170200  0.38790200  1
  C  C36  1  0.75487500  0.01820700  0.61202500  1
  C  C37  1  0.25474900  0.51821400  0.61191200  1
  C  C38  1  0.24516000  0.01823800  0.88799400  1
  C  C39  1  0.74520500  0.51822000  0.88805200  1
  C  C40  1  0.18309700  0.17420900  0.17460200  1
  C  C41  1  0.68311300  0.67423900  0.17456400  1
  C  C42  1  0.81681900  0.17411900  0.32546800  1
  C  C43  1  0.31685100  0.67419300  0.32541500  1
  C  C44  1  0.18311600  0.82577100  0.67456600  1
  C  C45  1  0.68312100  0.32581000  0.67458200  1
  C  C46  1  0.81672600  0.82587500  0.82567300  1
  C  C47  1  0.31679400  0.32584800  0.82542800  1
