# generated using pymatgen
data_Cu(NiC8)3
_symmetry_space_group_name_H-M   'P 1'
_cell_length_a   7.79073900
_cell_length_b   7.79356211
_cell_length_c   10.53411695
_cell_angle_alpha   90.03617471
_cell_angle_beta   90.07436840
_cell_angle_gamma   104.26215935
_symmetry_Int_Tables_number   1
_chemical_formula_structural   Cu(NiC8)3
_chemical_formula_sum   'Cu2 Ni6 C48'
_cell_volume   619.89203297
_cell_formula_units_Z   2
loop_
 _symmetry_equiv_pos_site_id
 _symmetry_equiv_pos_as_xyz
  1  'x, y, z'
loop_
 _atom_site_type_symbol
 _atom_site_label
 _atom_site_symmetry_multiplicity
 _atom_site_fract_x
 _atom_site_fract_y
 _atom_site_fract_z
 _atom_site_occupancy
  C  C0  1  0.00000000  0.00000000  0.00000000  1
  C  C1  1  0.00000000  0.50000000  0.50000000  1
  C  C2  1  0.50000000  0.00000000  0.50000000  1
  C  C3  1  0.25013600  0.24960400  0.50033400  1
  C  C4  1  0.74990700  0.24957800  0.99965900  1
  C  C5  1  0.50000000  0.50000000  0.00000000  1
  C  C6  1  0.25009300  0.75042200  0.00034100  1
  C  C7  1  0.74986400  0.75039600  0.49966600  1
  Ni  Ni8  1  0.36145300  0.11169100  0.78145300  1
  Ni  Ni9  1  0.13793100  0.38815100  0.21857800  1
  Ni  Ni10  1  0.36142200  0.61169000  0.71880300  1
  Ni  Ni11  1  0.63857800  0.38831000  0.28119700  1
  Ni  Ni12  1  0.86206900  0.61184900  0.78142200  1
  Ni  Ni13  1  0.63854700  0.88830900  0.21854700  1
  Cu  Cu14  1  0.86058300  0.11028300  0.71819600  1
  Cu  Cu15  1  0.13941700  0.88971700  0.28180400  1
  C  C16  1  0.07900200  0.32907100  0.90648600  1
  C  C17  1  0.41854400  0.16863200  0.09300500  1
  C  C18  1  0.58235700  0.33054500  0.59261200  1
  C  C19  1  0.08082000  0.83256300  0.59167600  1
  C  C20  1  0.91918000  0.16743700  0.40832400  1
  C  C21  1  0.41764300  0.66945500  0.40738800  1
  C  C22  1  0.58145600  0.83136800  0.90699500  1
  C  C23  1  0.92099800  0.67092900  0.09351400  1
  C  C24  1  0.08517100  0.13062300  0.33824600  1
  C  C25  1  0.25795900  0.00804100  0.09703800  1
  C  C26  1  0.11261600  0.16198900  0.83704100  1
  C  C27  1  0.01913300  0.26933300  0.04381300  1
  C  C28  1  0.47961100  0.22989100  0.95602700  1
  C  C29  1  0.38525300  0.33644600  0.16205100  1
  C  C30  1  0.58647600  0.13536400  0.16201300  1
  C  C31  1  0.08813200  0.63719400  0.16302800  1
  C  C32  1  0.24019300  0.49018200  0.90326100  1
  C  C33  1  0.25820300  0.50758100  0.40435700  1
  C  C34  1  0.75721900  0.00789000  0.40409700  1
  C  C35  1  0.41503800  0.36358600  0.66223200  1
  C  C36  1  0.61966400  0.16482700  0.66247600  1
  C  C37  1  0.11335500  0.66499500  0.66152100  1
  C  C38  1  0.01963000  0.77101300  0.45479000  1
  C  C39  1  0.52002200  0.26860200  0.45597200  1
  C  C40  1  0.47997800  0.73139800  0.54402800  1
  C  C41  1  0.98037000  0.22898700  0.54521000  1
  C  C42  1  0.88664500  0.33500500  0.33847900  1
  C  C43  1  0.38033600  0.83517300  0.33752400  1
  C  C44  1  0.58496200  0.63641400  0.33776800  1
  C  C45  1  0.74179700  0.49241900  0.59564300  1
  C  C46  1  0.24278100  0.99211000  0.59590300  1
  C  C47  1  0.75980700  0.50981800  0.09673900  1
  C  C48  1  0.91186800  0.36280600  0.83697200  1
  C  C49  1  0.41352400  0.86463600  0.83798700  1
  C  C50  1  0.61474700  0.66355400  0.83794900  1
  C  C51  1  0.52038900  0.77010900  0.04397300  1
  C  C52  1  0.98086700  0.73066700  0.95618700  1
  C  C53  1  0.88738400  0.83801100  0.16295900  1
  C  C54  1  0.74204100  0.99195900  0.90296200  1
  C  C55  1  0.91482900  0.86937700  0.66175400  1
