# generated using pymatgen
data_Cu2Ni2C9
_symmetry_space_group_name_H-M   'P 1'
_cell_length_a   10.90735927
_cell_length_b   10.90735927
_cell_length_c   11.84825800
_cell_angle_alpha   90.00000000
_cell_angle_beta   90.00000000
_cell_angle_gamma   119.99999554
_symmetry_Int_Tables_number   1
_chemical_formula_structural   Cu2Ni2C9
_chemical_formula_sum   'Cu12 Ni12 C54'
_cell_volume   1220.74341413
_cell_formula_units_Z   6
loop_
 _symmetry_equiv_pos_site_id
 _symmetry_equiv_pos_as_xyz
  1  'x, y, z'
loop_
 _atom_site_type_symbol
 _atom_site_label
 _atom_site_symmetry_multiplicity
 _atom_site_fract_x
 _atom_site_fract_y
 _atom_site_fract_z
 _atom_site_occupancy
  C  C0  1  0.00000000  0.50000000  0.33333300  1
  C  C1  1  0.00000000  0.00000000  0.16666700  1
  C  C2  1  0.00000000  0.00000000  0.50000000  1
  C  C3  1  0.00000000  0.00000000  0.83333300  1
  C  C4  1  0.50000000  0.00000000  0.00000000  1
  C  C5  1  0.50000000  0.50000000  0.66666700  1
  Ni  Ni6  1  0.00000000  0.74667700  0.83333300  1
  Ni  Ni7  1  0.25332300  0.00000000  0.50000000  1
  Ni  Ni8  1  0.00000000  0.25332300  0.83333300  1
  Ni  Ni9  1  0.25100000  0.74900000  0.16666700  1
  Ni  Ni10  1  0.50200100  0.25100000  0.83333300  1
  Ni  Ni11  1  0.25100000  0.50200100  0.50000000  1
  Ni  Ni12  1  0.74900000  0.49799900  0.50000000  1
  Ni  Ni13  1  0.49799900  0.74900000  0.83333300  1
  Ni  Ni14  1  0.74900000  0.25100000  0.16666700  1
  Ni  Ni15  1  0.25332300  0.25332300  0.16666700  1
  Ni  Ni16  1  0.74667700  0.00000000  0.50000000  1
  Ni  Ni17  1  0.74667700  0.74667700  0.16666700  1
  Cu  Cu18  1  0.00000000  0.75387700  0.33333300  1
  Cu  Cu19  1  0.24612300  0.00000000  0.00000000  1
  Cu  Cu20  1  0.24798900  0.75201100  0.66666700  1
  Cu  Cu21  1  0.49597800  0.24798900  0.33333300  1
  Cu  Cu22  1  0.00000000  0.24612300  0.33333300  1
  Cu  Cu23  1  0.24798900  0.49597800  0.00000000  1
  Cu  Cu24  1  0.75201100  0.50402200  0.00000000  1
  Cu  Cu25  1  0.24612300  0.24612300  0.66666700  1
  Cu  Cu26  1  0.50402200  0.75201100  0.33333300  1
  Cu  Cu27  1  0.75201100  0.24798900  0.66666700  1
  Cu  Cu28  1  0.75387700  0.00000000  0.00000000  1
  Cu  Cu29  1  0.75387700  0.75387700  0.66666700  1
  C  C30  1  0.07873400  0.88514300  0.42403200  1
  C  C31  1  0.19359100  0.11485700  0.57596800  1
  C  C32  1  0.11485700  0.92126600  0.90930100  1
  C  C33  1  0.19359100  0.07873400  0.09069900  1
  C  C34  1  0.10135700  0.70231700  0.73488300  1
  C  C35  1  0.39904000  0.29768300  0.26511700  1
  C  C36  1  0.10612300  0.70908900  0.27033400  1
  C  C37  1  0.39703400  0.29091100  0.72966600  1
  C  C38  1  0.29091100  0.89387700  0.06300000  1
  C  C39  1  0.39703400  0.10612300  0.93700000  1
  C  C40  1  0.29768300  0.89864300  0.59845100  1
  C  C41  1  0.39904000  0.10135700  0.40154900  1
  C  C42  1  0.20743800  0.61848500  0.58275700  1
  C  C43  1  0.58895300  0.38151500  0.41724300  1
  C  C44  1  0.10135700  0.39904000  0.93178400  1
  C  C45  1  0.70231700  0.60096000  0.06821600  1
  C  C46  1  0.10612300  0.39703400  0.39633300  1
  C  C47  1  0.70908900  0.60296600  0.60366700  1
  C  C48  1  0.20743800  0.58895300  0.08391000  1
  C  C49  1  0.61848500  0.41104700  0.91609000  1
  C  C50  1  0.07873400  0.19359100  0.24263500  1
  C  C51  1  0.88514300  0.80640900  0.75736500  1
  C  C52  1  0.38151500  0.79256200  0.75057600  1
  C  C53  1  0.58895300  0.20743800  0.24942400  1
  C  C54  1  0.41104700  0.79256200  0.24942400  1
  C  C55  1  0.61848500  0.20743800  0.75057600  1
  C  C56  1  0.11485700  0.19359100  0.75736500  1
  C  C57  1  0.92126600  0.80640900  0.24263500  1
  C  C58  1  0.38151500  0.58895300  0.91609000  1
  C  C59  1  0.79256200  0.41104700  0.08391000  1
  C  C60  1  0.29091100  0.39703400  0.60366700  1
  C  C61  1  0.89387700  0.60296600  0.39633300  1
  C  C62  1  0.29768300  0.39904000  0.06821600  1
  C  C63  1  0.89864300  0.60096000  0.93178400  1
  C  C64  1  0.41104700  0.61848500  0.41724300  1
  C  C65  1  0.79256200  0.38151500  0.58275700  1
  C  C66  1  0.60096000  0.89864300  0.40154900  1
  C  C67  1  0.70231700  0.10135700  0.59845100  1
  C  C68  1  0.60296600  0.89387700  0.93700000  1
  C  C69  1  0.70908900  0.10612300  0.06300000  1
  C  C70  1  0.60296600  0.70908900  0.72966600  1
  C  C71  1  0.89387700  0.29091100  0.27033400  1
  C  C72  1  0.60096000  0.70231700  0.26511700  1
  C  C73  1  0.89864300  0.29768300  0.73488300  1
  C  C74  1  0.80640900  0.92126600  0.09069900  1
  C  C75  1  0.88514300  0.07873400  0.90930100  1
  C  C76  1  0.80640900  0.88514300  0.57596800  1
  C  C77  1  0.92126600  0.11485700  0.42403200  1
