# generated using pymatgen
data_Cu7NiC2
_symmetry_space_group_name_H-M   'P 1'
_cell_length_a   9.24674800
_cell_length_b   6.51016500
_cell_length_c   12.88145241
_cell_angle_alpha   75.18538985
_cell_angle_beta   90.00000000
_cell_angle_gamma   90.00000000
_symmetry_Int_Tables_number   1
_chemical_formula_structural   Cu7NiC2
_chemical_formula_sum   'Cu28 Ni4 C8'
_cell_volume   749.65894019
_cell_formula_units_Z   4
loop_
 _symmetry_equiv_pos_site_id
 _symmetry_equiv_pos_as_xyz
  1  'x, y, z'
loop_
 _atom_site_type_symbol
 _atom_site_label
 _atom_site_symmetry_multiplicity
 _atom_site_fract_x
 _atom_site_fract_y
 _atom_site_fract_z
 _atom_site_occupancy
  C  C0  1  0.23853800  0.14138000  0.11800200  1
  C  C1  1  0.26146200  0.14138000  0.61800200  1
  C  C2  1  0.76146200  0.85862000  0.88199800  1
  C  C3  1  0.73853800  0.85862000  0.38199800  1
  C  C4  1  0.15069000  0.08229300  0.37385500  1
  C  C5  1  0.34931000  0.08229300  0.87385500  1
  C  C6  1  0.84931000  0.91770700  0.62614500  1
  C  C7  1  0.65069000  0.91770700  0.12614500  1
  Ni  Ni8  1  0.29687300  0.66997900  0.27191500  1
  Ni  Ni9  1  0.20312700  0.66997900  0.77191500  1
  Ni  Ni10  1  0.70312700  0.33002100  0.72808500  1
  Ni  Ni11  1  0.79687300  0.33002100  0.22808500  1
  Cu  Cu12  1  0.21573900  0.84478600  0.21095600  1
  Cu  Cu13  1  0.28426100  0.84478600  0.71095600  1
  Cu  Cu14  1  0.78426100  0.15521400  0.78904400  1
  Cu  Cu15  1  0.71573900  0.15521400  0.28904400  1
  Cu  Cu16  1  0.06740000  0.23367400  0.08587400  1
  Cu  Cu17  1  0.43260000  0.23367400  0.58587400  1
  Cu  Cu18  1  0.93260000  0.76632600  0.91412600  1
  Cu  Cu19  1  0.56740000  0.76632600  0.41412600  1
  Cu  Cu20  1  0.23427200  0.04230500  0.47711700  1
  Cu  Cu21  1  0.26572800  0.04230500  0.97711700  1
  Cu  Cu22  1  0.76572800  0.95769500  0.52288300  1
  Cu  Cu23  1  0.73427200  0.95769500  0.02288300  1
  Cu  Cu24  1  0.23617600  0.19721100  0.27699400  1
  Cu  Cu25  1  0.26382400  0.19721100  0.77699400  1
  Cu  Cu26  1  0.76382400  0.80278900  0.72300600  1
  Cu  Cu27  1  0.73617600  0.80278900  0.22300600  1
  Cu  Cu28  1  0.99628100  0.03351500  0.36977600  1
  Cu  Cu29  1  0.50371900  0.03351500  0.86977600  1
  Cu  Cu30  1  0.00371900  0.96648500  0.63022400  1
  Cu  Cu31  1  0.49628100  0.96648500  0.13022400  1
  Cu  Cu32  1  0.26701000  0.62942900  0.36502200  1
  Cu  Cu33  1  0.23299000  0.62942900  0.86502200  1
  Cu  Cu34  1  0.73299000  0.37057100  0.63497800  1
  Cu  Cu35  1  0.76701000  0.37057100  0.13497800  1
  Cu  Cu36  1  0.35057200  0.35816100  0.08449300  1
  Cu  Cu37  1  0.14942800  0.35816100  0.58449300  1
  Cu  Cu38  1  0.64942800  0.64183900  0.91550700  1
  Cu  Cu39  1  0.85057200  0.64183900  0.41550700  1
