# generated using pymatgen
data_Cu(NiC2)2
_symmetry_space_group_name_H-M   'P 1'
_cell_length_a   5.34668400
_cell_length_b   5.71678971
_cell_length_c   10.24509343
_cell_angle_alpha   105.47730580
_cell_angle_beta   86.06915246
_cell_angle_gamma   114.78460657
_symmetry_Int_Tables_number   1
_chemical_formula_structural   Cu(NiC2)2
_chemical_formula_sum   'Cu4 Ni8 C16'
_cell_volume   273.65998229
_cell_formula_units_Z   4
loop_
 _symmetry_equiv_pos_site_id
 _symmetry_equiv_pos_as_xyz
  1  'x, y, z'
loop_
 _atom_site_type_symbol
 _atom_site_label
 _atom_site_symmetry_multiplicity
 _atom_site_fract_x
 _atom_site_fract_y
 _atom_site_fract_z
 _atom_site_occupancy
  C  C0  1  0.05337500  0.19859000  0.76825600  1
  C  C1  1  0.47053000  0.10911600  0.25821500  1
  C  C2  1  0.53562100  0.44455900  0.61193700  1
  C  C3  1  0.96761200  0.54007200  0.87809000  1
  C  C4  1  0.04284800  0.22002100  0.55678400  1
  C  C5  1  0.51665100  0.24558700  0.04260100  1
  C  C6  1  0.94862400  0.32053900  0.32205600  1
  C  C7  1  0.48629100  0.82692700  0.93713500  1
  C  C8  1  0.97212900  0.74971700  0.46912400  1
  C  C9  1  0.98295100  0.40022300  0.10323300  1
  C  C10  1  0.49023200  0.57962900  0.38624000  1
  C  C11  1  0.48616500  0.84117000  0.72197800  1
  C  C12  1  0.99084900  0.83935600  0.25433400  1
  C  C13  1  0.52071300  0.67685800  0.17213700  1
  C  C14  1  0.00523600  0.89829900  0.05162600  1
  C  C15  1  0.50555000  0.01153400  0.49221700  1
  Ni  Ni16  1  0.25610400  0.58602900  0.59584100  1
  Ni  Ni17  1  0.28249100  0.81986300  0.20476800  1
  Ni  Ni18  1  0.16421500  0.85607700  0.96363300  1
  Ni  Ni19  1  0.66468200  0.88107600  0.43464600  1
  Ni  Ni20  1  0.69025100  0.50578600  0.11809100  1
  Ni  Ni21  1  0.34547400  0.15350200  0.54058200  1
  Ni  Ni22  1  0.82742700  0.11518500  0.05580300  1
  Ni  Ni23  1  0.77444300  0.43958900  0.39310900  1
  Cu  Cu24  1  0.86382900  0.88699100  0.72128200  1
  Cu  Cu25  1  0.32065900  0.52735500  0.88825400  1
  Cu  Cu26  1  0.14652000  0.15925600  0.27720800  1
  Cu  Cu27  1  0.68853000  0.16709200  0.78082200  1
