# generated using pymatgen
data_Cu(NiC4)3
_symmetry_space_group_name_H-M   'P 1'
_cell_length_a   5.01687500
_cell_length_b   12.52170000
_cell_length_c   14.58133000
_cell_angle_alpha   90.00000000
_cell_angle_beta   90.00000000
_cell_angle_gamma   90.00000000
_symmetry_Int_Tables_number   1
_chemical_formula_structural   Cu(NiC4)3
_chemical_formula_sum   'Cu4 Ni12 C48'
_cell_volume   915.99628810
_cell_formula_units_Z   4
loop_
 _symmetry_equiv_pos_site_id
 _symmetry_equiv_pos_as_xyz
  1  'x, y, z'
loop_
 _atom_site_type_symbol
 _atom_site_label
 _atom_site_symmetry_multiplicity
 _atom_site_fract_x
 _atom_site_fract_y
 _atom_site_fract_z
 _atom_site_occupancy
  C  C0  1  0.14815500  0.20820600  0.04089900  1
  C  C1  1  0.14815500  0.29179400  0.54089900  1
  C  C2  1  0.85184500  0.70820600  0.04089900  1
  C  C3  1  0.85184500  0.79179400  0.54089900  1
  C  C4  1  0.98435400  0.16249600  0.73669500  1
  C  C5  1  0.98435400  0.33750400  0.23669500  1
  C  C6  1  0.01564600  0.66249600  0.73669500  1
  C  C7  1  0.01564600  0.83750400  0.23669500  1
  Ni  Ni8  1  0.25261700  0.08519500  0.22986200  1
  Ni  Ni9  1  0.48075200  0.08214500  0.61977800  1
  Ni  Ni10  1  0.48408600  0.25632700  0.35373200  1
  Ni  Ni11  1  0.48408600  0.24367300  0.85373200  1
  Ni  Ni12  1  0.48075200  0.41785500  0.11977800  1
  Ni  Ni13  1  0.25261700  0.41480500  0.72986200  1
  Ni  Ni14  1  0.74738300  0.58519500  0.22986200  1
  Ni  Ni15  1  0.51924800  0.58214500  0.61977800  1
  Ni  Ni16  1  0.51591400  0.75632700  0.35373200  1
  Ni  Ni17  1  0.51591400  0.74367300  0.85373200  1
  Ni  Ni18  1  0.51924800  0.91785500  0.11977800  1
  Ni  Ni19  1  0.74738300  0.91480500  0.72986200  1
  Cu  Cu20  1  0.50213000  0.12452300  0.48149600  1
  Cu  Cu21  1  0.50213000  0.37547700  0.98149600  1
  Cu  Cu22  1  0.49787000  0.62452300  0.48149600  1
  Cu  Cu23  1  0.49787000  0.87547700  0.98149600  1
  C  C24  1  0.48683400  0.03100700  0.16819700  1
  C  C25  1  0.91022100  0.00086800  0.77383400  1
  C  C26  1  0.54458000  0.05584600  0.51737600  1
  C  C27  1  0.43177600  0.14094600  0.30606900  1
  C  C28  1  0.18888700  0.11685900  0.62588300  1
  C  C29  1  0.11714700  0.16798600  0.17082300  1
  C  C30  1  0.30750200  0.16007800  0.80747200  1
  C  C31  1  0.67248100  0.16581100  0.65811900  1
  C  C32  1  0.41508400  0.24006700  0.45428300  1
  C  C33  1  0.78400100  0.22239300  0.84092000  1
  C  C34  1  0.78400100  0.27760700  0.34092000  1
  C  C35  1  0.41508400  0.25993300  0.95428300  1
  C  C36  1  0.67248100  0.33418900  0.15811900  1
  C  C37  1  0.30750200  0.33992200  0.30747200  1
  C  C38  1  0.11714700  0.33201400  0.67082300  1
  C  C39  1  0.18888700  0.38314100  0.12588300  1
  C  C40  1  0.43177600  0.35905400  0.80606900  1
  C  C41  1  0.54458000  0.44415400  0.01737600  1
  C  C42  1  0.91022100  0.49913200  0.27383400  1
  C  C43  1  0.48683400  0.46899300  0.66819700  1
  C  C44  1  0.51316600  0.53100700  0.16819700  1
  C  C45  1  0.08977900  0.50086800  0.77383400  1
  C  C46  1  0.45542000  0.55584600  0.51737600  1
  C  C47  1  0.56822400  0.64094600  0.30606900  1
  C  C48  1  0.81111300  0.61685900  0.62588300  1
  C  C49  1  0.88285300  0.66798600  0.17082300  1
  C  C50  1  0.69249800  0.66007800  0.80747200  1
  C  C51  1  0.32751900  0.66581100  0.65811900  1
  C  C52  1  0.58491600  0.74006700  0.45428300  1
  C  C53  1  0.21599900  0.72239300  0.84092000  1
  C  C54  1  0.21599900  0.77760700  0.34092000  1
  C  C55  1  0.58491600  0.75993300  0.95428300  1
  C  C56  1  0.32751900  0.83418900  0.15811900  1
  C  C57  1  0.69249800  0.83992200  0.30747200  1
  C  C58  1  0.88285300  0.83201400  0.67082300  1
  C  C59  1  0.81111300  0.88314100  0.12588300  1
  C  C60  1  0.56822400  0.85905400  0.80606900  1
  C  C61  1  0.45542000  0.94415400  0.01737600  1
  C  C62  1  0.08977900  0.99913200  0.27383400  1
  C  C63  1  0.51316600  0.96899300  0.66819700  1
