# generated using pymatgen
data_Cu8NiC3
_symmetry_space_group_name_H-M   'P 1'
_cell_length_a   8.54756000
_cell_length_b   5.06923500
_cell_length_c   14.86406834
_cell_angle_alpha   87.23784063
_cell_angle_beta   90.00000000
_cell_angle_gamma   90.00000000
_symmetry_Int_Tables_number   1
_chemical_formula_structural   Cu8NiC3
_chemical_formula_sum   'Cu32 Ni4 C12'
_cell_volume   643.30571818
_cell_formula_units_Z   4
loop_
 _symmetry_equiv_pos_site_id
 _symmetry_equiv_pos_as_xyz
  1  'x, y, z'
loop_
 _atom_site_type_symbol
 _atom_site_label
 _atom_site_symmetry_multiplicity
 _atom_site_fract_x
 _atom_site_fract_y
 _atom_site_fract_z
 _atom_site_occupancy
  C  C0  1  0.46194900  0.75673200  0.84791700  1
  C  C1  1  0.96194900  0.24326800  0.65208300  1
  C  C2  1  0.53805100  0.24326800  0.15208300  1
  C  C3  1  0.03805100  0.75673200  0.34791700  1
  C  C4  1  0.32950000  0.76420400  0.05900900  1
  C  C5  1  0.82950000  0.23579600  0.44099100  1
  C  C6  1  0.67050000  0.23579600  0.94099100  1
  C  C7  1  0.17050000  0.76420400  0.55900900  1
  C  C8  1  0.77034100  0.73170200  0.17806700  1
  C  C9  1  0.27034100  0.26829800  0.32193300  1
  C  C10  1  0.22965900  0.26829800  0.82193300  1
  C  C11  1  0.72965900  0.73170200  0.67806700  1
  Ni  Ni12  1  0.52375900  0.75723800  0.40478100  1
  Ni  Ni13  1  0.02375900  0.24276200  0.09521900  1
  Ni  Ni14  1  0.47624100  0.24276200  0.59521900  1
  Ni  Ni15  1  0.97624100  0.75723800  0.90478100  1
  Cu  Cu16  1  0.56318200  0.45457200  0.89964000  1
  Cu  Cu17  1  0.06318200  0.54542800  0.60036000  1
  Cu  Cu18  1  0.43681800  0.54542800  0.10036000  1
  Cu  Cu19  1  0.93681800  0.45457200  0.39964000  1
  Cu  Cu20  1  0.60967000  0.96603900  0.91229600  1
  Cu  Cu21  1  0.10967000  0.03396100  0.58770400  1
  Cu  Cu22  1  0.39033000  0.03396100  0.08770400  1
  Cu  Cu23  1  0.89033000  0.96603900  0.41229600  1
  Cu  Cu24  1  0.35761000  0.05286500  0.80246200  1
  Cu  Cu25  1  0.85761000  0.94713500  0.69753800  1
  Cu  Cu26  1  0.64239000  0.94713500  0.19753800  1
  Cu  Cu27  1  0.14239000  0.05286500  0.30246200  1
  Cu  Cu28  1  0.31267100  0.53884300  0.79709000  1
  Cu  Cu29  1  0.81267100  0.46115700  0.70291000  1
  Cu  Cu30  1  0.68732900  0.46115700  0.20291000  1
  Cu  Cu31  1  0.18732900  0.53884300  0.29709000  1
  Cu  Cu32  1  0.66872800  0.75533800  0.58392700  1
  Cu  Cu33  1  0.16872800  0.24466200  0.91607300  1
  Cu  Cu34  1  0.33127200  0.24466200  0.41607300  1
  Cu  Cu35  1  0.83127200  0.75533800  0.08392700  1
  Cu  Cu36  1  0.60005900  0.75990700  0.75080900  1
  Cu  Cu37  1  0.10005900  0.24009300  0.74919100  1
  Cu  Cu38  1  0.39994100  0.24009300  0.24919100  1
  Cu  Cu39  1  0.89994100  0.75990700  0.25080900  1
  Cu  Cu40  1  0.33842500  0.75828600  0.95486900  1
  Cu  Cu41  1  0.83842500  0.24171400  0.54513100  1
  Cu  Cu42  1  0.66157500  0.24171400  0.04513100  1
  Cu  Cu43  1  0.16157500  0.75828600  0.45486900  1
  Cu  Cu44  1  0.83850400  0.27180300  0.90693300  1
  Cu  Cu45  1  0.33850400  0.72819700  0.59306700  1
  Cu  Cu46  1  0.16149600  0.72819700  0.09306700  1
  Cu  Cu47  1  0.66149600  0.27180300  0.40693300  1
