# generated using pymatgen
data_Cu8Ni2C5
_symmetry_space_group_name_H-M   'P 1'
_cell_length_a   12.03748818
_cell_length_b   12.03748818
_cell_length_c   12.03748818
_cell_angle_alpha   133.36543421
_cell_angle_beta   127.66558448
_cell_angle_gamma   72.68044457
_symmetry_Int_Tables_number   1
_chemical_formula_structural   Cu8Ni2C5
_chemical_formula_sum   'Cu16 Ni4 C10'
_cell_volume   981.00529892
_cell_formula_units_Z   2
loop_
 _symmetry_equiv_pos_site_id
 _symmetry_equiv_pos_as_xyz
  1  'x, y, z'
loop_
 _atom_site_type_symbol
 _atom_site_label
 _atom_site_symmetry_multiplicity
 _atom_site_fract_x
 _atom_site_fract_y
 _atom_site_fract_z
 _atom_site_occupancy
  C  C0  1  0.41355800  0.29807900  0.88452100  1
  C  C1  1  0.58644200  0.70192100  0.11547900  1
  C  C2  1  0.91355800  0.52903700  0.61547900  1
  C  C3  1  0.08644200  0.47096300  0.38452100  1
  C  C4  1  0.48575800  0.23575800  0.25000000  1
  C  C5  1  0.01424200  0.76424200  0.25000000  1
  C  C6  1  0.51424200  0.76424200  0.75000000  1
  C  C7  1  0.98575800  0.23575800  0.75000000  1
  Ni  Ni8  1  0.87431000  0.07598300  0.20167400  1
  Ni  Ni9  1  0.12569000  0.92401700  0.79832600  1
  Ni  Ni10  1  0.37431000  0.67263600  0.29832600  1
  Ni  Ni11  1  0.62569000  0.32736400  0.70167400  1
  C  C12  1  0.25000000  0.00000000  0.25000000  1
  C  C13  1  0.75000000  0.00000000  0.75000000  1
  Cu  Cu14  1  0.23714900  0.98231300  0.74516400  1
  Cu  Cu15  1  0.76285100  0.01768700  0.25483600  1
  Cu  Cu16  1  0.73714900  0.49198600  0.75483600  1
  Cu  Cu17  1  0.26285100  0.50801400  0.24516400  1
  Cu  Cu18  1  0.24567100  0.78444700  0.88095200  1
  Cu  Cu19  1  0.09650500  0.21555300  0.46122400  1
  Cu  Cu20  1  0.40349500  0.36471900  0.61904800  1
  Cu  Cu21  1  0.25432900  0.63528100  0.03877600  1
  Cu  Cu22  1  0.75432900  0.21555300  0.11904800  1
  Cu  Cu23  1  0.90349500  0.78444700  0.53877600  1
  Cu  Cu24  1  0.59650500  0.63528100  0.38095200  1
  Cu  Cu25  1  0.74567100  0.36471900  0.96122400  1
  Cu  Cu26  1  0.39547300  0.92489000  0.52941700  1
  Cu  Cu27  1  0.60452700  0.07511000  0.47058300  1
  Cu  Cu28  1  0.89547300  0.86605600  0.97058300  1
  Cu  Cu29  1  0.10452700  0.13394400  0.02941700  1
