# generated using pymatgen
data_Cu(NiC)3
_symmetry_space_group_name_H-M   'P 1'
_cell_length_a   6.20587971
_cell_length_b   6.20587971
_cell_length_c   6.20587968
_cell_angle_alpha   104.29486579
_cell_angle_beta   104.29486579
_cell_angle_gamma   104.29486011
_symmetry_Int_Tables_number   1
_chemical_formula_structural   Cu(NiC)3
_chemical_formula_sum   'Cu1 Ni3 C3'
_cell_volume   212.02963335
_cell_formula_units_Z   1
loop_
 _symmetry_equiv_pos_site_id
 _symmetry_equiv_pos_as_xyz
  1  'x, y, z'
loop_
 _atom_site_type_symbol
 _atom_site_label
 _atom_site_symmetry_multiplicity
 _atom_site_fract_x
 _atom_site_fract_y
 _atom_site_fract_z
 _atom_site_occupancy
  Ni  Ni0  1  0.43487200  0.43487200  0.82810200  1
  Ni  Ni1  1  0.43487200  0.82810200  0.43487200  1
  Ni  Ni2  1  0.82810200  0.43487200  0.43487200  1
  Cu  Cu3  1  0.01150100  0.01150100  0.01150100  1
  C  C4  1  0.42020400  0.03547500  0.03547500  1
  C  C5  1  0.03547500  0.03547500  0.42020400  1
  C  C6  1  0.03547500  0.42020400  0.03547500  1
