# generated using pymatgen
data_Cu16Ni16C53
_symmetry_space_group_name_H-M   'P 1'
_cell_length_a   13.20524997
_cell_length_b   13.20524997
_cell_length_c   13.20524997
_cell_angle_alpha   131.82098727
_cell_angle_beta   131.82098727
_cell_angle_gamma   70.51190539
_symmetry_Int_Tables_number   1
_chemical_formula_structural   Cu16Ni16C53
_chemical_formula_sum   'Cu16 Ni16 C53'
_cell_volume   1253.04680888
_cell_formula_units_Z   1
loop_
 _symmetry_equiv_pos_site_id
 _symmetry_equiv_pos_as_xyz
  1  'x, y, z'
loop_
 _atom_site_type_symbol
 _atom_site_label
 _atom_site_symmetry_multiplicity
 _atom_site_fract_x
 _atom_site_fract_y
 _atom_site_fract_z
 _atom_site_occupancy
  Ni  Ni0  1  0.56329500  0.81176500  0.50055100  1
  Ni  Ni1  1  0.31121500  0.06274400  0.49944900  1
  Ni  Ni2  1  0.06274400  0.31121500  0.49944900  1
  Ni  Ni3  1  0.81176500  0.56329500  0.50055100  1
  Ni  Ni4  1  0.93939300  0.93939300  0.25186700  1
  Ni  Ni5  1  0.68752600  0.68752600  0.74813300  1
  Ni  Ni6  1  0.18817500  0.18817500  0.75254300  1
  Ni  Ni7  1  0.43563300  0.43563300  0.24745700  1
  Ni  Ni8  1  0.56436700  0.81182500  0.00000000  1
  Ni  Ni9  1  0.81182500  0.56436700  0.00000000  1
  Ni  Ni10  1  0.31247400  0.06060700  0.00000000  1
  Ni  Ni11  1  0.06060700  0.31247400  0.00000000  1
  Ni  Ni12  1  0.18823500  0.68878500  0.75153000  1
  Ni  Ni13  1  0.68878500  0.18823500  0.75153000  1
  Ni  Ni14  1  0.43670500  0.93725600  0.24847000  1
  Ni  Ni15  1  0.93725600  0.43670500  0.24847000  1
  Cu  Cu16  1  0.56540200  0.31729000  0.00000000  1
  Cu  Cu17  1  0.06253100  0.81322900  0.00000000  1
  Cu  Cu18  1  0.81322900  0.06253100  0.00000000  1
  Cu  Cu19  1  0.31729000  0.56540200  0.00000000  1
  Cu  Cu20  1  0.92910600  0.43261200  0.73934100  1
  Cu  Cu21  1  0.18976600  0.69327100  0.26065900  1
  Cu  Cu22  1  0.69327100  0.18976600  0.26065900  1
  Cu  Cu23  1  0.43261200  0.92910600  0.73934100  1
  Cu  Cu24  1  0.56738800  0.30672900  0.49649400  1
  Cu  Cu25  1  0.07089400  0.81023400  0.50350600  1
  Cu  Cu26  1  0.30672900  0.56738800  0.49649400  1
  Cu  Cu27  1  0.81023400  0.07089400  0.50350600  1
  Cu  Cu28  1  0.43459800  0.43459800  0.75188800  1
  Cu  Cu29  1  0.18677100  0.18677100  0.24930100  1
  Cu  Cu30  1  0.68271000  0.68271000  0.24811200  1
  Cu  Cu31  1  0.93746900  0.93746900  0.75069900  1
  C  C32  1  0.91072100  0.41072100  0.50000000  1
  C  C33  1  0.41072100  0.91072100  0.50000000  1
  C  C34  1  0.62786300  0.81596800  0.69166800  1
  C  C35  1  0.81596800  0.62786300  0.69166800  1
  C  C36  1  0.44442500  0.62763100  0.32032100  1
  C  C37  1  0.64389000  0.12155800  0.00000000  1
  C  C38  1  0.93619400  0.12430000  0.30833200  1
  C  C39  1  0.30731100  0.12410400  0.67967900  1
  C  C40  1  0.62763100  0.44442500  0.32032100  1
  C  C41  1  0.12155800  0.64389000  0.00000000  1
  C  C42  1  0.12430000  0.93619400  0.30833200  1
  C  C43  1  0.12410400  0.30731100  0.67967900  1
  C  C44  1  0.85359100  0.85359100  0.00000000  1
  C  C45  1  0.34341900  0.34341900  0.00000000  1
  C  C46  1  0.53657200  0.53657200  0.50354600  1
  C  C47  1  0.03302600  0.03302600  0.49645400  1
  C  C48  1  0.43046600  0.25025200  0.18205400  1
  C  C49  1  0.75158800  0.56953400  0.81978600  1
  C  C50  1  0.56953400  0.75158800  0.81978600  1
  C  C51  1  0.06819800  0.24841200  0.81794600  1
  C  C52  1  0.74974800  0.93180200  0.18021400  1
  C  C53  1  0.93180200  0.74974800  0.18021400  1
  C  C54  1  0.25025200  0.43046600  0.18205400  1
  C  C55  1  0.24841200  0.06819800  0.81794600  1
  C  C56  1  0.96697400  0.46342800  0.00000000  1
  C  C57  1  0.46342800  0.96697400  0.00000000  1
  C  C58  1  0.14640900  0.14640900  0.00000000  1
  C  C59  1  0.65658100  0.65658100  0.00000000  1
  C  C60  1  0.18403200  0.87570000  0.81189400  1
  C  C61  1  0.69268900  0.37236900  0.81679300  1
  C  C62  1  0.35611000  0.35611000  0.47766800  1
  C  C63  1  0.55557500  0.87589600  0.18320700  1
  C  C64  1  0.87570000  0.18403200  0.81189400  1
  C  C65  1  0.37236900  0.69268900  0.81679300  1
  C  C66  1  0.87844200  0.87844200  0.52233200  1
  C  C67  1  0.87589600  0.55557500  0.18320700  1
  C  C68  1  0.37213700  0.06380600  0.18810600  1
  C  C69  1  0.06380600  0.37213700  0.18810600  1
  C  C70  1  0.08927900  0.58927900  0.50000000  1
  C  C71  1  0.58927900  0.08927900  0.50000000  1
  C  C72  1  0.78116500  0.27846400  0.00000000  1
  C  C73  1  0.27846400  0.78116500  0.00000000  1
  C  C74  1  0.50000000  0.18031500  0.68031500  1
  C  C75  1  0.00000000  0.70721000  0.70721000  1
  C  C76  1  0.70721000  0.00000000  0.70721000  1
  C  C77  1  0.29279000  0.00000000  0.29279000  1
  C  C78  1  0.18031500  0.50000000  0.68031500  1
  C  C79  1  0.50000000  0.81968500  0.31968500  1
  C  C80  1  0.00000000  0.00000000  0.00000000  1
  C  C81  1  0.81968500  0.50000000  0.31968500  1
  C  C82  1  0.00000000  0.29279000  0.29279000  1
  C  C83  1  0.72153600  0.72153600  0.50270100  1
  C  C84  1  0.21883500  0.21883500  0.49729900  1
