# generated using pymatgen
data_Cu6Ni4C5
_symmetry_space_group_name_H-M   'P 1'
_cell_length_a   7.90338160
_cell_length_b   7.90338160
_cell_length_c   7.90338160
_cell_angle_alpha   151.69584126
_cell_angle_beta   112.85309482
_cell_angle_gamma   74.40637626
_symmetry_Int_Tables_number   1
_chemical_formula_structural   Cu6Ni4C5
_chemical_formula_sum   'Cu6 Ni4 C5'
_cell_volume   212.65946204
_cell_formula_units_Z   1
loop_
 _symmetry_equiv_pos_site_id
 _symmetry_equiv_pos_as_xyz
  1  'x, y, z'
loop_
 _atom_site_type_symbol
 _atom_site_label
 _atom_site_symmetry_multiplicity
 _atom_site_fract_x
 _atom_site_fract_y
 _atom_site_fract_z
 _atom_site_occupancy
  C  C0  1  0.00000000  0.00000000  0.00000000  1
  C  C1  1  0.72400400  0.72400400  0.00000000  1
  C  C2  1  0.67119400  0.50000000  0.17119400  1
  C  C3  1  0.32880600  0.50000000  0.82880600  1
  C  C4  1  0.27599600  0.27599600  0.00000000  1
  Ni  Ni5  1  0.90576100  0.17315200  0.73261000  1
  Ni  Ni6  1  0.55945800  0.82684800  0.73261000  1
  Ni  Ni7  1  0.44054200  0.17315200  0.26739000  1
  Ni  Ni8  1  0.09423900  0.82684800  0.26739000  1
  Cu  Cu9  1  0.97713900  0.35316800  0.62397100  1
  Cu  Cu10  1  0.72919600  0.35316800  0.37602900  1
  Cu  Cu11  1  0.58617400  0.08617400  0.50000000  1
  Cu  Cu12  1  0.41382600  0.91382600  0.50000000  1
  Cu  Cu13  1  0.27080400  0.64683200  0.62397100  1
  Cu  Cu14  1  0.02286100  0.64683200  0.37602900  1
