# generated using pymatgen
data_CuNiC5
_symmetry_space_group_name_H-M   'P 1'
_cell_length_a   7.20932037
_cell_length_b   7.20932037
_cell_length_c   15.25498000
_cell_angle_alpha   90.00000000
_cell_angle_beta   90.00000000
_cell_angle_gamma   150.18024035
_symmetry_Int_Tables_number   1
_chemical_formula_structural   CuNiC5
_chemical_formula_sum   'Cu2 Ni2 C10'
_cell_volume   394.27146470
_cell_formula_units_Z   2
loop_
 _symmetry_equiv_pos_site_id
 _symmetry_equiv_pos_as_xyz
  1  'x, y, z'
loop_
 _atom_site_type_symbol
 _atom_site_label
 _atom_site_symmetry_multiplicity
 _atom_site_fract_x
 _atom_site_fract_y
 _atom_site_fract_z
 _atom_site_occupancy
  Ni  Ni0  1  0.49025700  0.50974300  0.25000000  1
  Ni  Ni1  1  0.50974300  0.49025700  0.75000000  1
  Cu  Cu2  1  0.00000000  0.00000000  0.50000000  1
  Cu  Cu3  1  0.00000000  0.00000000  0.00000000  1
  C  C4  1  0.59943700  0.40056300  0.57592200  1
  C  C5  1  0.90250800  0.09749200  0.64572500  1
  C  C6  1  0.40056300  0.59943700  0.42407800  1
  C  C7  1  0.40056300  0.59943700  0.07592200  1
  C  C8  1  0.59943700  0.40056300  0.92407800  1
  C  C9  1  0.83494700  0.16505300  0.25000000  1
  C  C10  1  0.09749200  0.90250800  0.14572500  1
  C  C11  1  0.16505300  0.83494700  0.75000000  1
  C  C12  1  0.90250800  0.09749200  0.85427500  1
  C  C13  1  0.09749200  0.90250800  0.35427500  1
