# generated using pymatgen
data_Cu7NiC40
_symmetry_space_group_name_H-M   'P 1'
_cell_length_a   5.23191600
_cell_length_b   6.02793319
_cell_length_c   16.09255689
_cell_angle_alpha   81.48416542
_cell_angle_beta   89.53047187
_cell_angle_gamma   88.92184559
_symmetry_Int_Tables_number   1
_chemical_formula_structural   Cu7NiC40
_chemical_formula_sum   'Cu7 Ni1 C40'
_cell_volume   501.82946540
_cell_formula_units_Z   1
loop_
 _symmetry_equiv_pos_site_id
 _symmetry_equiv_pos_as_xyz
  1  'x, y, z'
loop_
 _atom_site_type_symbol
 _atom_site_label
 _atom_site_symmetry_multiplicity
 _atom_site_fract_x
 _atom_site_fract_y
 _atom_site_fract_z
 _atom_site_occupancy
  C  C0  1  0.84770100  0.06612700  0.38899200  1
  C  C1  1  0.15123000  0.43573500  0.11095200  1
  C  C2  1  0.65322800  0.18261000  0.86102500  1
  C  C3  1  0.34899900  0.31630700  0.63929600  1
  C  C4  1  0.65233000  0.68710500  0.35860700  1
  C  C5  1  0.34861200  0.81324100  0.14121900  1
  C  C6  1  0.84923100  0.56399100  0.89122100  1
  C  C7  1  0.14980800  0.93426000  0.60905600  1
  Ni  Ni8  1  0.16839400  0.02707500  0.78992500  1
  Cu  Cu9  1  0.66274400  0.27741800  0.04020800  1
  Cu  Cu10  1  0.33774800  0.22218200  0.45993700  1
  Cu  Cu11  1  0.16402700  0.52275400  0.29267800  1
  Cu  Cu12  1  0.82105100  0.47471600  0.71027100  1
  Cu  Cu13  1  0.67347600  0.77536200  0.53891600  1
  Cu  Cu14  1  0.83702900  0.97683200  0.20737400  1
  Cu  Cu15  1  0.32431700  0.72243600  0.96153300  1
  C  C16  1  0.32894400  0.03879800  0.29689700  1
  C  C17  1  0.83007400  0.28754400  0.54626300  1
  C  C18  1  0.67088700  0.46166100  0.20298600  1
  C  C19  1  0.17276300  0.21252700  0.95443800  1
  C  C20  1  0.82750200  0.78686600  0.04663300  1
  C  C21  1  0.32960300  0.53501200  0.79672500  1
  C  C22  1  0.17350800  0.71281100  0.45350900  1
  C  C23  1  0.66849700  0.96489100  0.70193100  1
  C  C24  1  0.58992600  0.01302600  0.30818300  1
  C  C25  1  0.18339000  0.16894300  0.34556900  1
  C  C26  1  0.70590100  0.17454900  0.48879400  1
  C  C27  1  0.29413600  0.32753900  0.01150900  1
  C  C28  1  0.78633800  0.08070700  0.75947000  1
  C  C29  1  0.81644500  0.33089300  0.15437500  1
  C  C30  1  0.31994500  0.08045300  0.90717300  1
  C  C31  1  0.09013300  0.26207500  0.55713200  1
  C  C32  1  0.41006100  0.48727600  0.19166400  1
  C  C33  1  0.91264200  0.23661500  0.94254800  1
  C  C34  1  0.68710900  0.42018800  0.59459500  1
  C  C35  1  0.20559500  0.42187600  0.74004100  1
  C  C36  1  0.79524100  0.57487300  0.25998000  1
  C  C37  1  0.31591500  0.58113100  0.40457600  1
  C  C38  1  0.08936600  0.76470700  0.05834300  1
  C  C39  1  0.58985100  0.51275300  0.80859300  1
  C  C40  1  0.91235700  0.73669000  0.44228400  1
  C  C41  1  0.68447900  0.91876700  0.09505600  1
  C  C42  1  0.18664000  0.66700900  0.84590300  1
  C  C43  1  0.20473500  0.92560200  0.23959900  1
  C  C44  1  0.70663200  0.67210100  0.99014200  1
  C  C45  1  0.29585800  0.82590800  0.51031200  1
  C  C46  1  0.81664900  0.83031600  0.65522300  1
  C  C47  1  0.40895400  0.98774400  0.68834700  1
