# generated using pymatgen
data_CuNi3C5
_symmetry_space_group_name_H-M   'P 1'
_cell_length_a   7.49331822
_cell_length_b   7.49331822
_cell_length_c   6.14191600
_cell_angle_alpha   90.00000000
_cell_angle_beta   90.00000000
_cell_angle_gamma   120.00000194
_symmetry_Int_Tables_number   1
_chemical_formula_structural   CuNi3C5
_chemical_formula_sum   'Cu2 Ni6 C10'
_cell_volume   298.66397996
_cell_formula_units_Z   2
loop_
 _symmetry_equiv_pos_site_id
 _symmetry_equiv_pos_as_xyz
  1  'x, y, z'
loop_
 _atom_site_type_symbol
 _atom_site_label
 _atom_site_symmetry_multiplicity
 _atom_site_fract_x
 _atom_site_fract_y
 _atom_site_fract_z
 _atom_site_occupancy
  C  C0  1  0.00000000  0.00000000  0.01056600  1
  C  C1  1  0.00000000  0.00000000  0.51056600  1
  C  C2  1  0.33333300  0.66666700  0.06933600  1
  C  C3  1  0.33391900  0.53434100  0.28913200  1
  C  C4  1  0.20042200  0.66608100  0.28913200  1
  C  C5  1  0.46565900  0.79957800  0.28913200  1
  C  C6  1  0.66666700  0.33333300  0.56933600  1
  C  C7  1  0.66608100  0.46565900  0.78913200  1
  C  C8  1  0.79957800  0.33391900  0.78913200  1
  C  C9  1  0.53434100  0.20042200  0.78913200  1
  Ni  Ni10  1  0.79647800  0.12069100  0.26274400  1
  Ni  Ni11  1  0.32421300  0.20352200  0.26274400  1
  Ni  Ni12  1  0.87930900  0.67578700  0.26274400  1
  Ni  Ni13  1  0.20352200  0.87930900  0.76274400  1
  Ni  Ni14  1  0.67578700  0.79647800  0.76274400  1
  Ni  Ni15  1  0.12069100  0.32421300  0.76274400  1
  Cu  Cu16  1  0.33333300  0.66666700  0.23798300  1
  Cu  Cu17  1  0.66666700  0.33333300  0.73798300  1
