# generated using pymatgen
data_Cu17Ni7C12
_symmetry_space_group_name_H-M   'P 1'
_cell_length_a   4.80268100
_cell_length_b   5.80475084
_cell_length_c   15.89755769
_cell_angle_alpha   89.53750262
_cell_angle_beta   89.48066201
_cell_angle_gamma   86.08411910
_symmetry_Int_Tables_number   1
_chemical_formula_structural   Cu17Ni7C12
_chemical_formula_sum   'Cu17 Ni7 C12'
_cell_volume   442.13274313
_cell_formula_units_Z   1
loop_
 _symmetry_equiv_pos_site_id
 _symmetry_equiv_pos_as_xyz
  1  'x, y, z'
loop_
 _atom_site_type_symbol
 _atom_site_label
 _atom_site_symmetry_multiplicity
 _atom_site_fract_x
 _atom_site_fract_y
 _atom_site_fract_z
 _atom_site_occupancy
  C  C0  1  0.99641000  0.84660900  0.41404300  1
  C  C1  1  0.98118500  0.17307400  0.25168000  1
  C  C2  1  0.99590100  0.82959900  0.07639500  1
  C  C3  1  0.00055000  0.84519600  0.74841300  1
  C  C4  1  0.98656500  0.17182300  0.57216200  1
  C  C5  1  0.97191500  0.14324300  0.91015100  1
  C  C6  1  0.48400100  0.66567800  0.59350600  1
  C  C7  1  0.51617700  0.68514400  0.92696600  1
  C  C8  1  0.48212100  0.64435200  0.26063000  1
  C  C9  1  0.47838000  0.34844500  0.07944700  1
  C  C10  1  0.51573500  0.34931700  0.41305000  1
  C  C11  1  0.48886500  0.34046600  0.75435800  1
  Ni  Ni12  1  0.78713300  0.88787600  0.97226400  1
  Ni  Ni13  1  0.77876500  0.11325000  0.46207800  1
  Ni  Ni14  1  0.77542000  0.10819200  0.80017500  1
  Ni  Ni15  1  0.70718300  0.39535400  0.30831000  1
  Ni  Ni16  1  0.28842400  0.63032900  0.02745200  1
  Ni  Ni17  1  0.26842700  0.60944200  0.36466300  1
  Ni  Ni18  1  0.26781000  0.61034500  0.70284000  1
  Cu  Cu19  1  0.77221600  0.88754500  0.30423600  1
  Cu  Cu20  1  0.78522300  0.88437500  0.64032000  1
  Cu  Cu21  1  0.76311500  0.10377100  0.13526900  1
  Cu  Cu22  1  0.71991300  0.61229100  0.15132500  1
  Cu  Cu23  1  0.75059000  0.61951100  0.48350400  1
  Cu  Cu24  1  0.72819900  0.38396900  0.64699400  1
  Cu  Cu25  1  0.73442900  0.61247300  0.81613500  1
  Cu  Cu26  1  0.74825200  0.39104600  0.97941400  1
  Cu  Cu27  1  0.25204300  0.38390400  0.18991900  1
  Cu  Cu28  1  0.29983700  0.37990000  0.52264700  1
  Cu  Cu29  1  0.27523700  0.37543600  0.86574000  1
  Cu  Cu30  1  0.22565700  0.87526200  0.19274000  1
  Cu  Cu31  1  0.22993000  0.88341100  0.52184800  1
  Cu  Cu32  1  0.23823300  0.09834400  0.35662100  1
  Cu  Cu33  1  0.22487400  0.11993800  0.01932100  1
  Cu  Cu34  1  0.24037100  0.87930000  0.85092100  1
  Cu  Cu35  1  0.24091000  0.11178800  0.68445900  1
