# generated using pymatgen
data_CuNi15C32
_symmetry_space_group_name_H-M   'P 1'
_cell_length_a   8.23564595
_cell_length_b   8.23564595
_cell_length_c   8.23564610
_cell_angle_alpha   90.23833908
_cell_angle_beta   90.23833908
_cell_angle_gamma   90.23834391
_symmetry_Int_Tables_number   1
_chemical_formula_structural   CuNi15C32
_chemical_formula_sum   'Cu1 Ni15 C32'
_cell_volume   558.57527481
_cell_formula_units_Z   1
loop_
 _symmetry_equiv_pos_site_id
 _symmetry_equiv_pos_as_xyz
  1  'x, y, z'
loop_
 _atom_site_type_symbol
 _atom_site_label
 _atom_site_symmetry_multiplicity
 _atom_site_fract_x
 _atom_site_fract_y
 _atom_site_fract_z
 _atom_site_occupancy
  Ni  Ni0  1  0.99943100  0.24879200  0.24879200  1
  Ni  Ni1  1  0.00000000  0.50000000  0.50000000  1
  Ni  Ni2  1  0.00056900  0.75120800  0.75120800  1
  Ni  Ni3  1  0.75050300  0.50000000  0.24949700  1
  Ni  Ni4  1  0.75050300  0.24949700  0.50000000  1
  Ni  Ni5  1  0.75120800  0.75120800  0.00056900  1
  Ni  Ni6  1  0.75120800  0.00056900  0.75120800  1
  Ni  Ni7  1  0.50000000  0.50000000  0.00000000  1
  Ni  Ni8  1  0.50000000  0.24949700  0.75050300  1
  Ni  Ni9  1  0.50000000  0.75050300  0.24949700  1
  Ni  Ni10  1  0.50000000  0.00000000  0.50000000  1
  Ni  Ni11  1  0.24879200  0.24879200  0.99943100  1
  Ni  Ni12  1  0.24949700  0.50000000  0.75050300  1
  Ni  Ni13  1  0.24879200  0.99943100  0.24879200  1
  Ni  Ni14  1  0.24949700  0.75050300  0.50000000  1
  Cu  Cu15  1  0.00000000  0.00000000  0.00000000  1
  C  C16  1  0.01388200  0.23133200  0.01388200  1
  C  C17  1  0.01388200  0.01388200  0.23133200  1
  C  C18  1  0.01425000  0.73609900  0.51499400  1
  C  C19  1  0.01425000  0.51499400  0.73609900  1
  C  C20  1  0.98575000  0.26390100  0.48500600  1
  C  C21  1  0.98575000  0.48500600  0.26390100  1
  C  C22  1  0.98611800  0.76866800  0.98611800  1
  C  C23  1  0.98611800  0.98611800  0.76866800  1
  C  C24  1  0.76424200  0.26423600  0.26423600  1
  C  C25  1  0.76504600  0.48509400  0.48509400  1
  C  C26  1  0.76483000  0.76483000  0.76483000  1
  C  C27  1  0.76866800  0.98611800  0.98611800  1
  C  C28  1  0.73576400  0.73576400  0.23575800  1
  C  C29  1  0.73609900  0.51499400  0.01425000  1
  C  C30  1  0.73576400  0.23575800  0.73576400  1
  C  C31  1  0.73609900  0.01425000  0.51499400  1
  C  C32  1  0.51490600  0.51490600  0.23495400  1
  C  C33  1  0.51499400  0.73609900  0.01425000  1
  C  C34  1  0.51499400  0.01425000  0.73609900  1
  C  C35  1  0.51490600  0.23495400  0.51490600  1
  C  C36  1  0.48509400  0.48509400  0.76504600  1
  C  C37  1  0.48500600  0.26390100  0.98575000  1
  C  C38  1  0.48500600  0.98575000  0.26390100  1
  C  C39  1  0.48509400  0.76504600  0.48509400  1
  C  C40  1  0.26390100  0.48500600  0.98575000  1
  C  C41  1  0.26423600  0.26423600  0.76424200  1
  C  C42  1  0.26390100  0.98575000  0.48500600  1
  C  C43  1  0.26423600  0.76424200  0.26423600  1
  C  C44  1  0.23133200  0.01388200  0.01388200  1
  C  C45  1  0.23517000  0.23517000  0.23517000  1
  C  C46  1  0.23495400  0.51490600  0.51490600  1
  C  C47  1  0.23575800  0.73576400  0.73576400  1
