# generated using pymatgen
data_Cu10Ni3C8
_symmetry_space_group_name_H-M   'P 1'
_cell_length_a   6.29033300
_cell_length_b   12.46831200
_cell_length_c   15.86052000
_cell_angle_alpha   90.00000000
_cell_angle_beta   90.00000000
_cell_angle_gamma   90.00000000
_symmetry_Int_Tables_number   1
_chemical_formula_structural   Cu10Ni3C8
_chemical_formula_sum   'Cu40 Ni12 C32'
_cell_volume   1243.93795754
_cell_formula_units_Z   4
loop_
 _symmetry_equiv_pos_site_id
 _symmetry_equiv_pos_as_xyz
  1  'x, y, z'
loop_
 _atom_site_type_symbol
 _atom_site_label
 _atom_site_symmetry_multiplicity
 _atom_site_fract_x
 _atom_site_fract_y
 _atom_site_fract_z
 _atom_site_occupancy
  C  C0  1  0.18902100  0.12511600  0.62343900  1
  C  C1  1  0.18902100  0.12511600  0.87656100  1
  C  C2  1  0.17943000  0.14693400  0.12779800  1
  C  C3  1  0.17943000  0.14693400  0.37220200  1
  C  C4  1  0.67943000  0.35306600  0.62779800  1
  C  C5  1  0.67943000  0.35306600  0.87220200  1
  C  C6  1  0.68902100  0.37488400  0.37656100  1
  C  C7  1  0.68902100  0.37488400  0.12343900  1
  C  C8  1  0.31097900  0.62511600  0.87656100  1
  C  C9  1  0.31097900  0.62511600  0.62343900  1
  C  C10  1  0.32057000  0.64693400  0.12779800  1
  C  C11  1  0.32057000  0.64693400  0.37220200  1
  C  C12  1  0.82057000  0.85306600  0.87220200  1
  C  C13  1  0.82057000  0.85306600  0.62779800  1
  C  C14  1  0.81097900  0.87488400  0.12343900  1
  C  C15  1  0.81097900  0.87488400  0.37656100  1
  C  C16  1  0.70560600  0.09085900  0.59270500  1
  C  C17  1  0.70560600  0.09085900  0.90729500  1
  C  C18  1  0.62862900  0.15455800  0.19947300  1
  C  C19  1  0.62862900  0.15455800  0.30052700  1
  C  C20  1  0.12862900  0.34544200  0.69947300  1
  C  C21  1  0.12862900  0.34544200  0.80052700  1
  C  C22  1  0.20560600  0.40914100  0.09270500  1
  C  C23  1  0.20560600  0.40914100  0.40729500  1
  C  C24  1  0.79439400  0.59085900  0.90729500  1
  C  C25  1  0.79439400  0.59085900  0.59270500  1
  C  C26  1  0.87137100  0.65455800  0.19947300  1
  C  C27  1  0.87137100  0.65455800  0.30052700  1
  C  C28  1  0.37137100  0.84544200  0.69947300  1
  C  C29  1  0.37137100  0.84544200  0.80052700  1
  C  C30  1  0.29439400  0.90914100  0.09270500  1
  C  C31  1  0.29439400  0.90914100  0.40729500  1
  Ni  Ni32  1  0.71970400  0.09442000  0.75000000  1
  Ni  Ni33  1  0.66063700  0.12672800  0.02865500  1
  Ni  Ni34  1  0.66063700  0.12672800  0.47134500  1
  Ni  Ni35  1  0.16063700  0.37327200  0.52865500  1
  Ni  Ni36  1  0.16063700  0.37327200  0.97134500  1
  Ni  Ni37  1  0.21970400  0.40558000  0.25000000  1
  Ni  Ni38  1  0.78029600  0.59442000  0.75000000  1
  Ni  Ni39  1  0.83936300  0.62672800  0.02865500  1
  Ni  Ni40  1  0.83936300  0.62672800  0.47134500  1
  Ni  Ni41  1  0.33936300  0.87327200  0.52865500  1
  Ni  Ni42  1  0.33936300  0.87327200  0.97134500  1
  Ni  Ni43  1  0.28029600  0.90558000  0.25000000  1
  Cu  Cu44  1  0.88010600  0.02965200  0.75000000  1
  Cu  Cu45  1  0.75753100  0.06700900  0.53263500  1
  Cu  Cu46  1  0.75753100  0.06700900  0.96736500  1
  Cu  Cu47  1  0.72121100  0.10529500  0.10397300  1
  Cu  Cu48  1  0.72121100  0.10529500  0.39602700  1
  Cu  Cu49  1  0.63585800  0.12871100  0.67930000  1
  Cu  Cu50  1  0.63585800  0.12871100  0.82070000  1
  Cu  Cu51  1  0.56889300  0.19134700  0.25000000  1
  Cu  Cu52  1  0.52300100  0.19606000  0.00800200  1
  Cu  Cu53  1  0.52300100  0.19606000  0.49199800  1
  Cu  Cu54  1  0.02300100  0.30394000  0.50800200  1
  Cu  Cu55  1  0.02300100  0.30394000  0.99199800  1
  Cu  Cu56  1  0.06889300  0.30865300  0.75000000  1
  Cu  Cu57  1  0.13585800  0.37128900  0.17930000  1
  Cu  Cu58  1  0.13585800  0.37128900  0.32070000  1
  Cu  Cu59  1  0.22121100  0.39470500  0.60397300  1
  Cu  Cu60  1  0.22121100  0.39470500  0.89602700  1
  Cu  Cu61  1  0.25753100  0.43299100  0.03263500  1
  Cu  Cu62  1  0.25753100  0.43299100  0.46736500  1
  Cu  Cu63  1  0.38010600  0.47034800  0.25000000  1
  Cu  Cu64  1  0.61989400  0.52965200  0.75000000  1
  Cu  Cu65  1  0.74246900  0.56700900  0.96736500  1
  Cu  Cu66  1  0.74246900  0.56700900  0.53263500  1
  Cu  Cu67  1  0.77878900  0.60529500  0.10397300  1
  Cu  Cu68  1  0.77878900  0.60529500  0.39602700  1
  Cu  Cu69  1  0.86414200  0.62871100  0.82070000  1
  Cu  Cu70  1  0.86414200  0.62871100  0.67930000  1
  Cu  Cu71  1  0.93110700  0.69134700  0.25000000  1
  Cu  Cu72  1  0.97699900  0.69606000  0.00800200  1
  Cu  Cu73  1  0.97699900  0.69606000  0.49199800  1
  Cu  Cu74  1  0.47699900  0.80394000  0.50800200  1
  Cu  Cu75  1  0.47699900  0.80394000  0.99199800  1
  Cu  Cu76  1  0.43110700  0.80865300  0.75000000  1
  Cu  Cu77  1  0.36414200  0.87128900  0.17930000  1
  Cu  Cu78  1  0.36414200  0.87128900  0.32070000  1
  Cu  Cu79  1  0.27878900  0.89470500  0.89602700  1
  Cu  Cu80  1  0.27878900  0.89470500  0.60397300  1
  Cu  Cu81  1  0.24246900  0.93299100  0.03263500  1
  Cu  Cu82  1  0.24246900  0.93299100  0.46736500  1
  Cu  Cu83  1  0.11989400  0.97034800  0.25000000  1
