# generated using pymatgen
data_Cu8Ni2C3
_symmetry_space_group_name_H-M   'P 1'
_cell_length_a   9.18642800
_cell_length_b   9.30261800
_cell_length_c   13.80134700
_cell_angle_alpha   90.00000000
_cell_angle_beta   90.00000000
_cell_angle_gamma   90.00000000
_symmetry_Int_Tables_number   1
_chemical_formula_structural   Cu8Ni2C3
_chemical_formula_sum   'Cu64 Ni16 C24'
_cell_volume   1179.43317216
_cell_formula_units_Z   8
loop_
 _symmetry_equiv_pos_site_id
 _symmetry_equiv_pos_as_xyz
  1  'x, y, z'
loop_
 _atom_site_type_symbol
 _atom_site_label
 _atom_site_symmetry_multiplicity
 _atom_site_fract_x
 _atom_site_fract_y
 _atom_site_fract_z
 _atom_site_occupancy
  C  C0  1  0.77989100  0.96608100  0.37374700  1
  C  C1  1  0.72010900  0.96608100  0.87374700  1
  C  C2  1  0.04464400  0.77505800  0.37248400  1
  C  C3  1  0.45535600  0.77505800  0.87248400  1
  C  C4  1  0.95535600  0.72494200  0.87248400  1
  C  C5  1  0.54464400  0.72494200  0.37248400  1
  C  C6  1  0.27989100  0.53391900  0.37374700  1
  C  C7  1  0.22010900  0.53391900  0.87374700  1
  C  C8  1  0.77989100  0.46608100  0.12625300  1
  C  C9  1  0.72010900  0.46608100  0.62625300  1
  C  C10  1  0.45535600  0.27505800  0.62751600  1
  C  C11  1  0.04464400  0.27505800  0.12751600  1
  C  C12  1  0.54464400  0.22494200  0.12751600  1
  C  C13  1  0.95535600  0.22494200  0.62751600  1
  C  C14  1  0.22010900  0.03391900  0.62625300  1
  C  C15  1  0.27989100  0.03391900  0.12625300  1
  C  C16  1  0.89723200  0.86113800  0.12295100  1
  C  C17  1  0.60276800  0.86113800  0.62295100  1
  C  C18  1  0.39723200  0.63886200  0.12295100  1
  C  C19  1  0.10276800  0.63886200  0.62295100  1
  C  C20  1  0.89723200  0.36113800  0.37704900  1
  C  C21  1  0.60276800  0.36113800  0.87704900  1
  C  C22  1  0.39723200  0.13886200  0.37704900  1
  C  C23  1  0.10276800  0.13886200  0.87704900  1
  Ni  Ni24  1  0.93058400  0.92530900  0.72708500  1
  Ni  Ni25  1  0.56941600  0.92530900  0.22708500  1
  Ni  Ni26  1  0.31307600  0.83931400  0.49088900  1
  Ni  Ni27  1  0.18692400  0.83931400  0.99088900  1
  Ni  Ni28  1  0.81307600  0.66068600  0.49088900  1
  Ni  Ni29  1  0.68692400  0.66068600  0.99088900  1
  Ni  Ni30  1  0.06941600  0.57469100  0.22708500  1
  Ni  Ni31  1  0.43058400  0.57469100  0.72708500  1
  Ni  Ni32  1  0.56941600  0.42530900  0.27291500  1
  Ni  Ni33  1  0.93058400  0.42530900  0.77291500  1
  Ni  Ni34  1  0.31307600  0.33931400  0.00911100  1
  Ni  Ni35  1  0.18692400  0.33931400  0.50911100  1
  Ni  Ni36  1  0.81307600  0.16068600  0.00911100  1
  Ni  Ni37  1  0.68692400  0.16068600  0.50911100  1
  Ni  Ni38  1  0.43058400  0.07469100  0.77291500  1
  Ni  Ni39  1  0.06941600  0.07469100  0.27291500  1
  Cu  Cu40  1  0.30051800  0.99785700  0.47730600  1
  Cu  Cu41  1  0.19948200  0.99785700  0.97730600  1
  Cu  Cu42  1  0.00236600  0.98246200  0.34745100  1
  Cu  Cu43  1  0.49763400  0.98246200  0.84745100  1
  Cu  Cu44  1  0.53655000  0.97592800  0.32877400  1
  Cu  Cu45  1  0.96345000  0.97592800  0.82877400  1
  Cu  Cu46  1  0.76803300  0.92680000  0.72235700  1
  Cu  Cu47  1  0.73196700  0.92680000  0.22235700  1
  Cu  Cu48  1  0.27051500  0.81131000  0.08180000  1
  Cu  Cu49  1  0.22948500  0.81131000  0.58180000  1
  Cu  Cu50  1  0.03186700  0.79454100  0.00419900  1
  Cu  Cu51  1  0.46813300  0.79454100  0.50419900  1
  Cu  Cu52  1  0.98762900  0.77506000  0.72183800  1
  Cu  Cu53  1  0.51237100  0.77506000  0.22183800  1
  Cu  Cu54  1  0.25684100  0.75813200  0.40622500  1
  Cu  Cu55  1  0.24315900  0.75813200  0.90622500  1
  Cu  Cu56  1  0.75684100  0.74186800  0.40622500  1
  Cu  Cu57  1  0.74315900  0.74186800  0.90622500  1
  Cu  Cu58  1  0.01237100  0.72494000  0.22183800  1
  Cu  Cu59  1  0.48762900  0.72494000  0.72183800  1
  Cu  Cu60  1  0.96813300  0.70545900  0.50419900  1
  Cu  Cu61  1  0.53186700  0.70545900  0.00419900  1
  Cu  Cu62  1  0.77051500  0.68869000  0.08180000  1
  Cu  Cu63  1  0.72948500  0.68869000  0.58180000  1
  Cu  Cu64  1  0.23196700  0.57320000  0.22235700  1
  Cu  Cu65  1  0.26803300  0.57320000  0.72235700  1
  Cu  Cu66  1  0.46345000  0.52407200  0.82877400  1
  Cu  Cu67  1  0.03655000  0.52407200  0.32877400  1
  Cu  Cu68  1  0.50236600  0.51753800  0.34745100  1
  Cu  Cu69  1  0.99763400  0.51753800  0.84745100  1
  Cu  Cu70  1  0.80051800  0.50214300  0.47730600  1
  Cu  Cu71  1  0.69948200  0.50214300  0.97730600  1
  Cu  Cu72  1  0.30051800  0.49785700  0.02269400  1
  Cu  Cu73  1  0.19948200  0.49785700  0.52269400  1
  Cu  Cu74  1  0.49763400  0.48246200  0.65254900  1
  Cu  Cu75  1  0.00236600  0.48246200  0.15254900  1
  Cu  Cu76  1  0.53655000  0.47592800  0.17122600  1
  Cu  Cu77  1  0.96345000  0.47592800  0.67122600  1
  Cu  Cu78  1  0.73196700  0.42680000  0.27764300  1
  Cu  Cu79  1  0.76803300  0.42680000  0.77764300  1
  Cu  Cu80  1  0.27051500  0.31131000  0.41820000  1
  Cu  Cu81  1  0.22948500  0.31131000  0.91820000  1
  Cu  Cu82  1  0.46813300  0.29454100  0.99580100  1
  Cu  Cu83  1  0.03186700  0.29454100  0.49580100  1
  Cu  Cu84  1  0.51237100  0.27506000  0.27816200  1
  Cu  Cu85  1  0.98762900  0.27506000  0.77816200  1
  Cu  Cu86  1  0.25684100  0.25813200  0.09377500  1
  Cu  Cu87  1  0.24315900  0.25813200  0.59377500  1
  Cu  Cu88  1  0.75684100  0.24186800  0.09377500  1
  Cu  Cu89  1  0.74315900  0.24186800  0.59377500  1
  Cu  Cu90  1  0.48762900  0.22494000  0.77816200  1
  Cu  Cu91  1  0.01237100  0.22494000  0.27816200  1
  Cu  Cu92  1  0.53186700  0.20545900  0.49580100  1
  Cu  Cu93  1  0.96813300  0.20545900  0.99580100  1
  Cu  Cu94  1  0.77051500  0.18869000  0.41820000  1
  Cu  Cu95  1  0.72948500  0.18869000  0.91820000  1
  Cu  Cu96  1  0.26803300  0.07320000  0.77764300  1
  Cu  Cu97  1  0.23196700  0.07320000  0.27764300  1
  Cu  Cu98  1  0.46345000  0.02407200  0.67122600  1
  Cu  Cu99  1  0.03655000  0.02407200  0.17122600  1
  Cu  Cu100  1  0.99763400  0.01753800  0.65254900  1
  Cu  Cu101  1  0.50236600  0.01753800  0.15254900  1
  Cu  Cu102  1  0.80051800  0.00214300  0.02269400  1
  Cu  Cu103  1  0.69948200  0.00214300  0.52269400  1
