# generated using pymatgen
data_CuNiC6
_symmetry_space_group_name_H-M   'P 1'
_cell_length_a   11.02646600
_cell_length_b   11.02646600
_cell_length_c   11.02646600
_cell_angle_alpha   90.00000000
_cell_angle_beta   90.00000000
_cell_angle_gamma   90.00000000
_symmetry_Int_Tables_number   1
_chemical_formula_structural   CuNiC6
_chemical_formula_sum   'Cu16 Ni16 C96'
_cell_volume   1340.63029136
_cell_formula_units_Z   16
loop_
 _symmetry_equiv_pos_site_id
 _symmetry_equiv_pos_as_xyz
  1  'x, y, z'
loop_
 _atom_site_type_symbol
 _atom_site_label
 _atom_site_symmetry_multiplicity
 _atom_site_fract_x
 _atom_site_fract_y
 _atom_site_fract_z
 _atom_site_occupancy
  C  C0  1  0.49872200  0.99872200  0.50127800  1
  C  C1  1  0.99872200  0.50127800  0.49872200  1
  C  C2  1  0.50127800  0.49872200  0.99872200  1
  C  C3  1  0.00127800  0.00127800  0.00127800  1
  C  C4  1  0.33531000  0.23510300  0.49740100  1
  C  C5  1  0.50259900  0.83531000  0.26489700  1
  C  C6  1  0.73510300  0.00259900  0.66469000  1
  C  C7  1  0.83531000  0.26489700  0.50259900  1
  C  C8  1  0.00259900  0.66469000  0.73510300  1
  C  C9  1  0.23510300  0.49740100  0.33531000  1
  C  C10  1  0.66469000  0.73510300  0.00259900  1
  C  C11  1  0.49740100  0.33531000  0.23510300  1
  C  C12  1  0.26489700  0.50259900  0.83531000  1
  C  C13  1  0.16469000  0.76489700  0.99740100  1
  C  C14  1  0.99740100  0.16469000  0.76489700  1
  C  C15  1  0.76489700  0.99740100  0.16469000  1
  C  C16  1  0.23057200  0.35553500  0.49779200  1
  C  C17  1  0.50220800  0.73057200  0.14446500  1
  C  C18  1  0.85553500  0.00220800  0.76942800  1
  C  C19  1  0.73057200  0.14446500  0.50220800  1
  C  C20  1  0.00220800  0.76942800  0.85553500  1
  C  C21  1  0.35553500  0.49779200  0.23057200  1
  C  C22  1  0.76942800  0.85553500  0.00220800  1
  C  C23  1  0.49779200  0.23057200  0.35553500  1
  C  C24  1  0.14446500  0.50220800  0.73057200  1
  C  C25  1  0.26942800  0.64446500  0.99779200  1
  C  C26  1  0.99779200  0.26942800  0.64446500  1
  C  C27  1  0.64446500  0.99779200  0.26942800  1
  C  C28  1  0.75399000  0.64483600  0.63233000  1
  C  C29  1  0.36767000  0.25399000  0.85516400  1
  C  C30  1  0.14483600  0.86767000  0.24601000  1
  C  C31  1  0.25399000  0.85516400  0.36767000  1
  C  C32  1  0.86767000  0.24601000  0.14483600  1
  C  C33  1  0.64483600  0.63233000  0.75399000  1
  C  C34  1  0.24601000  0.14483600  0.86767000  1
  C  C35  1  0.63233000  0.75399000  0.64483600  1
  C  C36  1  0.85516400  0.36767000  0.25399000  1
  C  C37  1  0.74601000  0.35516400  0.13233000  1
  C  C38  1  0.13233000  0.74601000  0.35516400  1
  C  C39  1  0.35516400  0.13233000  0.74601000  1
  C  C40  1  0.39420300  0.55175200  0.54478100  1
  C  C41  1  0.45521900  0.89420300  0.94824800  1
  C  C42  1  0.05175200  0.95521900  0.60579700  1
  C  C43  1  0.89420300  0.94824800  0.45521900  1
  C  C44  1  0.95521900  0.60579700  0.05175200  1
  C  C45  1  0.55175200  0.54478100  0.39420300  1
  C  C46  1  0.60579700  0.05175200  0.95521900  1
  C  C47  1  0.54478100  0.39420300  0.55175200  1
  C  C48  1  0.94824800  0.45521900  0.89420300  1
  C  C49  1  0.10579700  0.44824800  0.04478100  1
  C  C50  1  0.04478100  0.10579700  0.44824800  1
  C  C51  1  0.44824800  0.04478100  0.10579700  1
  C  C52  1  0.43743300  0.70669600  0.57046300  1
  C  C53  1  0.42953700  0.93743300  0.79330400  1
  C  C54  1  0.20669600  0.92953700  0.56256700  1
  C  C55  1  0.93743300  0.79330400  0.42953700  1
  C  C56  1  0.92953700  0.56256700  0.20669600  1
  C  C57  1  0.70669600  0.57046300  0.43743300  1
  C  C58  1  0.56256700  0.20669600  0.92953700  1
  C  C59  1  0.57046300  0.43743300  0.70669600  1
  C  C60  1  0.79330400  0.42953700  0.93743300  1
  C  C61  1  0.06256700  0.29330400  0.07046300  1
  C  C62  1  0.07046300  0.06256700  0.29330400  1
  C  C63  1  0.29330400  0.07046300  0.06256700  1
  C  C64  1  0.42945100  0.59876100  0.69636200  1
  C  C65  1  0.30363800  0.92945100  0.90123900  1
  C  C66  1  0.09876100  0.80363800  0.57054900  1
  C  C67  1  0.92945100  0.90123900  0.30363800  1
  C  C68  1  0.80363800  0.57054900  0.09876100  1
  C  C69  1  0.59876100  0.69636200  0.42945100  1
  C  C70  1  0.57054900  0.09876100  0.80363800  1
  C  C71  1  0.69636200  0.42945100  0.59876100  1
  C  C72  1  0.90123900  0.30363800  0.92945100  1
  C  C73  1  0.07054900  0.40123900  0.19636200  1
  C  C74  1  0.19636200  0.07054900  0.40123900  1
  C  C75  1  0.40123900  0.19636200  0.07054900  1
  C  C76  1  0.36203100  0.36203100  0.36203100  1
  C  C77  1  0.63796900  0.86203100  0.13796900  1
  C  C78  1  0.86203100  0.13796900  0.63796900  1
  C  C79  1  0.13796900  0.63796900  0.86203100  1
  C  C80  1  0.65909600  0.65909600  0.65909600  1
  C  C81  1  0.34090400  0.15909600  0.84090400  1
  C  C82  1  0.15909600  0.84090400  0.34090400  1
  C  C83  1  0.84090400  0.34090400  0.15909600  1
  C  C84  1  0.44990400  0.61260600  0.60009100  1
  C  C85  1  0.39990900  0.94990400  0.88739400  1
  C  C86  1  0.11260600  0.89990900  0.55009600  1
  C  C87  1  0.94990400  0.88739400  0.39990900  1
  C  C88  1  0.89990900  0.55009600  0.11260600  1
  C  C89  1  0.61260600  0.60009100  0.44990400  1
  C  C90  1  0.55009600  0.11260600  0.89990900  1
  C  C91  1  0.60009100  0.44990400  0.61260600  1
  C  C92  1  0.88739400  0.39990900  0.94990400  1
  C  C93  1  0.05009600  0.38739400  0.10009100  1
  C  C94  1  0.10009100  0.05009600  0.38739400  1
  C  C95  1  0.38739400  0.10009100  0.05009600  1
  Ni  Ni96  1  0.30876800  0.31833800  0.46241000  1
  Ni  Ni97  1  0.53759000  0.80876800  0.18166200  1
  Ni  Ni98  1  0.81833800  0.03759000  0.69123200  1
  Ni  Ni99  1  0.80876800  0.18166200  0.53759000  1
  Ni  Ni100  1  0.03759000  0.69123200  0.81833800  1
  Ni  Ni101  1  0.31833800  0.46241000  0.30876800  1
  Ni  Ni102  1  0.69123200  0.81833800  0.03759000  1
  Ni  Ni103  1  0.46241000  0.30876800  0.31833800  1
  Ni  Ni104  1  0.18166200  0.53759000  0.80876800  1
  Ni  Ni105  1  0.19123200  0.68166200  0.96241000  1
  Ni  Ni106  1  0.96241000  0.19123200  0.68166200  1
  Ni  Ni107  1  0.68166200  0.96241000  0.19123200  1
  Ni  Ni108  1  0.58034900  0.58034900  0.58034900  1
  Ni  Ni109  1  0.41965100  0.08034900  0.91965100  1
  Ni  Ni110  1  0.08034900  0.91965100  0.41965100  1
  Ni  Ni111  1  0.91965100  0.41965100  0.08034900  1
  Cu  Cu112  1  0.59357300  0.09357300  0.40642700  1
  Cu  Cu113  1  0.09357300  0.40642700  0.59357300  1
  Cu  Cu114  1  0.40642700  0.59357300  0.09357300  1
  Cu  Cu115  1  0.90642700  0.90642700  0.90642700  1
  Cu  Cu116  1  0.36606400  0.08286900  0.54456700  1
  Cu  Cu117  1  0.45543300  0.86606400  0.41713100  1
  Cu  Cu118  1  0.58286900  0.95543300  0.63393600  1
  Cu  Cu119  1  0.86606400  0.41713100  0.45543300  1
  Cu  Cu120  1  0.95543300  0.63393600  0.58286900  1
  Cu  Cu121  1  0.08286900  0.54456700  0.36606400  1
  Cu  Cu122  1  0.63393600  0.58286900  0.95543300  1
  Cu  Cu123  1  0.54456700  0.36606400  0.08286900  1
  Cu  Cu124  1  0.41713100  0.45543300  0.86606400  1
  Cu  Cu125  1  0.13393600  0.91713100  0.04456700  1
  Cu  Cu126  1  0.04456700  0.13393600  0.91713100  1
  Cu  Cu127  1  0.91713100  0.04456700  0.13393600  1
