# generated using pymatgen
data_CuNiC5
_symmetry_space_group_name_H-M   'P 1'
_cell_length_a   4.36745900
_cell_length_b   5.73528100
_cell_length_c   9.98856600
_cell_angle_alpha   90.00000000
_cell_angle_beta   90.00000000
_cell_angle_gamma   90.00000000
_symmetry_Int_Tables_number   1
_chemical_formula_structural   CuNiC5
_chemical_formula_sum   'Cu4 Ni4 C20'
_cell_volume   250.19964046
_cell_formula_units_Z   4
loop_
 _symmetry_equiv_pos_site_id
 _symmetry_equiv_pos_as_xyz
  1  'x, y, z'
loop_
 _atom_site_type_symbol
 _atom_site_label
 _atom_site_symmetry_multiplicity
 _atom_site_fract_x
 _atom_site_fract_y
 _atom_site_fract_z
 _atom_site_occupancy
  C  C0  1  0.48531400  0.75000000  0.77593500  1
  C  C1  1  0.98531400  0.25000000  0.72406500  1
  C  C2  1  0.51468600  0.25000000  0.22406500  1
  C  C3  1  0.01468600  0.75000000  0.27593500  1
  Ni  Ni4  1  0.50000000  0.50000000  0.50000000  1
  Ni  Ni5  1  0.00000000  0.50000000  0.00000000  1
  Ni  Ni6  1  0.50000000  0.00000000  0.50000000  1
  Ni  Ni7  1  0.00000000  0.00000000  0.00000000  1
  Cu  Cu8  1  0.09190600  0.25000000  0.41307400  1
  Cu  Cu9  1  0.90809400  0.75000000  0.58692600  1
  Cu  Cu10  1  0.40809400  0.25000000  0.91307400  1
  Cu  Cu11  1  0.59190600  0.75000000  0.08692600  1
  C  C12  1  0.76451200  0.53921100  0.64858700  1
  C  C13  1  0.26451200  0.46078900  0.85141300  1
  C  C14  1  0.23548800  0.03921100  0.35141300  1
  C  C15  1  0.73548800  0.96078900  0.14858700  1
  C  C16  1  0.26451200  0.03921100  0.85141300  1
  C  C17  1  0.23548800  0.46078900  0.35141300  1
  C  C18  1  0.76451200  0.96078900  0.64858700  1
  C  C19  1  0.73548800  0.53921100  0.14858700  1
  C  C20  1  0.26067200  0.75000000  0.08072400  1
  C  C21  1  0.76067200  0.25000000  0.41927600  1
  C  C22  1  0.73932800  0.25000000  0.91927600  1
  C  C23  1  0.23932800  0.75000000  0.58072400  1
  C  C24  1  0.74396400  0.75000000  0.44444100  1
  C  C25  1  0.24396400  0.25000000  0.05555900  1
  C  C26  1  0.25603600  0.25000000  0.55555900  1
  C  C27  1  0.75603600  0.75000000  0.94444100  1
