# generated using pymatgen
data_Cu2Ni3C19
_symmetry_space_group_name_H-M   'P 1'
_cell_length_a   5.75788938
_cell_length_b   5.75788938
_cell_length_c   9.32594657
_cell_angle_alpha   89.13290586
_cell_angle_beta   89.13290586
_cell_angle_gamma   60.18333801
_symmetry_Int_Tables_number   1
_chemical_formula_structural   Cu2Ni3C19
_chemical_formula_sum   'Cu2 Ni3 C19'
_cell_volume   268.21503639
_cell_formula_units_Z   1
loop_
 _symmetry_equiv_pos_site_id
 _symmetry_equiv_pos_as_xyz
  1  'x, y, z'
loop_
 _atom_site_type_symbol
 _atom_site_label
 _atom_site_symmetry_multiplicity
 _atom_site_fract_x
 _atom_site_fract_y
 _atom_site_fract_z
 _atom_site_occupancy
  Ni  Ni0  1  0.17030600  0.17030600  0.21475600  1
  Ni  Ni1  1  0.33603600  0.83601700  0.71564800  1
  Ni  Ni2  1  0.83601700  0.33603600  0.71564800  1
  Cu  Cu3  1  0.34182100  0.34182100  0.49683700  1
  Cu  Cu4  1  0.67532200  0.67532200  0.99895500  1
  C  C5  1  0.16810400  0.66622300  0.21510600  1
  C  C6  1  0.66622300  0.16810400  0.21510600  1
  C  C7  1  0.83284000  0.83284000  0.71324000  1
  C  C8  1  0.16291300  0.67535400  0.59948400  1
  C  C9  1  0.48225000  0.48225000  0.32913900  1
  C  C10  1  0.34000500  0.34000500  0.11245500  1
  C  C11  1  0.99635700  0.99635700  0.30921500  1
  C  C12  1  0.00009500  0.00009500  0.81394000  1
  C  C13  1  0.67535400  0.16291300  0.59948400  1
  C  C14  1  0.03511500  0.48725400  0.33085800  1
  C  C15  1  0.48725400  0.03511500  0.33085800  1
  C  C16  1  0.83860600  0.83860600  0.10241800  1
  C  C17  1  0.16716800  0.16716800  0.59744100  1
  C  C18  1  0.51703100  0.96599500  0.83191800  1
  C  C19  1  0.96599500  0.51703100  0.83191800  1
  C  C20  1  0.66876200  0.66876200  0.60894100  1
  C  C21  1  0.33035100  0.83852900  0.09999500  1
  C  C22  1  0.51798100  0.51798100  0.83298400  1
  C  C23  1  0.83852900  0.33035100  0.09999500  1
