# generated using pymatgen
data_Cu4NiC14
_symmetry_space_group_name_H-M   'P 1'
_cell_length_a   9.05903200
_cell_length_b   7.69317900
_cell_length_c   8.41525845
_cell_angle_alpha   58.45289473
_cell_angle_beta   90.00000000
_cell_angle_gamma   90.00000000
_symmetry_Int_Tables_number   1
_chemical_formula_structural   Cu4NiC14
_chemical_formula_sum   'Cu8 Ni2 C28'
_cell_volume   499.80646913
_cell_formula_units_Z   2
loop_
 _symmetry_equiv_pos_site_id
 _symmetry_equiv_pos_as_xyz
  1  'x, y, z'
loop_
 _atom_site_type_symbol
 _atom_site_label
 _atom_site_symmetry_multiplicity
 _atom_site_fract_x
 _atom_site_fract_y
 _atom_site_fract_z
 _atom_site_occupancy
  C  C0  1  0.69610800  0.76106200  0.35461400  1
  C  C1  1  0.80389200  0.76106200  0.85461400  1
  C  C2  1  0.19610800  0.23893800  0.14538600  1
  C  C3  1  0.30389200  0.23893800  0.64538600  1
  Ni  Ni4  1  0.00000000  0.00000000  0.00000000  1
  Ni  Ni5  1  0.50000000  0.00000000  0.50000000  1
  Cu  Cu6  1  0.58496000  0.43589600  0.74140000  1
  Cu  Cu7  1  0.08496000  0.56410400  0.75860000  1
  Cu  Cu8  1  0.21373200  0.81269700  0.36554300  1
  Cu  Cu9  1  0.71373200  0.18730300  0.13445700  1
  Cu  Cu10  1  0.28626800  0.81269700  0.86554300  1
  Cu  Cu11  1  0.78626800  0.18730300  0.63445700  1
  Cu  Cu12  1  0.91504000  0.43589600  0.24140000  1
  Cu  Cu13  1  0.41504000  0.56410400  0.25860000  1
  C  C14  1  0.72345200  0.34194000  0.68781000  1
  C  C15  1  0.11540000  0.33944600  0.85686500  1
  C  C16  1  0.44168800  0.35554500  0.72288600  1
  C  C17  1  0.61293200  0.33912300  0.96280400  1
  C  C18  1  0.11293200  0.66087700  0.53719600  1
  C  C19  1  0.11372500  0.96635400  0.21106900  1
  C  C20  1  0.94168800  0.64445500  0.77711400  1
  C  C21  1  0.61540000  0.66055400  0.64313500  1
  C  C22  1  0.82678900  0.07764000  0.08985800  1
  C  C23  1  0.22345200  0.65806000  0.81219000  1
  C  C24  1  0.32678900  0.92236000  0.41014200  1
  C  C25  1  0.61372500  0.03364600  0.28893100  1
  C  C26  1  0.38627500  0.96635400  0.71106900  1
  C  C27  1  0.67321100  0.07764000  0.58985800  1
  C  C28  1  0.77654800  0.34194000  0.18781000  1
  C  C29  1  0.17321100  0.92236000  0.91014200  1
  C  C30  1  0.38460000  0.33944600  0.35686500  1
  C  C31  1  0.05831200  0.35554500  0.22288600  1
  C  C32  1  0.88627500  0.03364600  0.78893100  1
  C  C33  1  0.88706800  0.33912300  0.46280400  1
  C  C34  1  0.38706800  0.66087700  0.03719600  1
  C  C35  1  0.55831200  0.64445500  0.27711400  1
  C  C36  1  0.88460000  0.66055400  0.14313500  1
  C  C37  1  0.27654800  0.65806000  0.31219000  1
