# generated using pymatgen
data_Cu3NiC30
_symmetry_space_group_name_H-M   'P 1'
_cell_length_a   8.91247278
_cell_length_b   8.91247278
_cell_length_c   8.91247349
_cell_angle_alpha   58.96039018
_cell_angle_beta   58.96039018
_cell_angle_gamma   58.96038996
_symmetry_Int_Tables_number   1
_chemical_formula_structural   Cu3NiC30
_chemical_formula_sum   'Cu3 Ni1 C30'
_cell_volume   488.71347758
_cell_formula_units_Z   1
loop_
 _symmetry_equiv_pos_site_id
 _symmetry_equiv_pos_as_xyz
  1  'x, y, z'
loop_
 _atom_site_type_symbol
 _atom_site_label
 _atom_site_symmetry_multiplicity
 _atom_site_fract_x
 _atom_site_fract_y
 _atom_site_fract_z
 _atom_site_occupancy
  Ni  Ni0  1  0.85828000  0.85828000  0.85828000  1
  C  C1  1  0.03492300  0.46797500  0.75102800  1
  C  C2  1  0.46797500  0.75102800  0.03492300  1
  C  C3  1  0.75102800  0.03492300  0.46797500  1
  C  C4  1  0.24546800  0.96304900  0.54092600  1
  C  C5  1  0.54092600  0.24546800  0.96304900  1
  C  C6  1  0.96304900  0.54092600  0.24546800  1
  Cu  Cu7  1  0.14229800  0.14229800  0.14229800  1
  Cu  Cu8  1  0.35722600  0.35722600  0.35722600  1
  Cu  Cu9  1  0.64214800  0.64214800  0.64214800  1
  C  C10  1  0.13181300  0.50388400  0.28557500  1
  C  C11  1  0.28557500  0.13181300  0.50388400  1
  C  C12  1  0.06270600  0.28559200  0.92042800  1
  C  C13  1  0.50388400  0.28557500  0.13181300  1
  C  C14  1  0.21266200  0.43256100  0.58067900  1
  C  C15  1  0.00944000  0.63459200  0.77662000  1
  C  C16  1  0.28559200  0.92042800  0.06270600  1
  C  C17  1  0.43256100  0.58067900  0.21266200  1
  C  C18  1  0.58067900  0.21266200  0.43256100  1
  C  C19  1  0.22168800  0.99231700  0.36512800  1
  C  C20  1  0.07915000  0.94083800  0.71400000  1
  C  C21  1  0.36512800  0.22168800  0.99231700  1
  C  C22  1  0.63459200  0.77662000  0.00944000  1
  C  C23  1  0.92042800  0.06270600  0.28559200  1
  C  C24  1  0.77662000  0.00944000  0.63459200  1
  C  C25  1  0.42304900  0.78836900  0.55910100  1
  C  C26  1  0.55910100  0.42304900  0.78836900  1
  C  C27  1  0.71400000  0.07915000  0.94083800  1
  C  C28  1  0.99231700  0.36512800  0.22168800  1
  C  C29  1  0.78836900  0.55910100  0.42304900  1
  C  C30  1  0.49000400  0.71979600  0.86668500  1
  C  C31  1  0.94083800  0.71400000  0.07915000  1
  C  C32  1  0.71979600  0.86668500  0.49000400  1
  C  C33  1  0.86668500  0.49000400  0.71979600  1
