# generated using pymatgen
data_Cu3NiC
_symmetry_space_group_name_H-M   'P 1'
_cell_length_a   3.79633500
_cell_length_b   10.38921700
_cell_length_c   12.57238500
_cell_angle_alpha   90.00000000
_cell_angle_beta   90.00000000
_cell_angle_gamma   90.00000000
_symmetry_Int_Tables_number   1
_chemical_formula_structural   Cu3NiC
_chemical_formula_sum   'Cu12 Ni4 C4'
_cell_volume   495.86678453
_cell_formula_units_Z   4
loop_
 _symmetry_equiv_pos_site_id
 _symmetry_equiv_pos_as_xyz
  1  'x, y, z'
loop_
 _atom_site_type_symbol
 _atom_site_label
 _atom_site_symmetry_multiplicity
 _atom_site_fract_x
 _atom_site_fract_y
 _atom_site_fract_z
 _atom_site_occupancy
  C  C0  1  0.25000000  0.40477300  0.61042600  1
  C  C1  1  0.75000000  0.59522700  0.38957400  1
  C  C2  1  0.25000000  0.90477300  0.88957400  1
  C  C3  1  0.75000000  0.09522700  0.11042600  1
  Ni  Ni4  1  0.75000000  0.26665600  0.79407000  1
  Ni  Ni5  1  0.25000000  0.73334400  0.20593000  1
  Ni  Ni6  1  0.75000000  0.76665600  0.70593000  1
  Ni  Ni7  1  0.25000000  0.23334400  0.29407000  1
  Cu  Cu8  1  0.25000000  0.92842100  0.09422100  1
  Cu  Cu9  1  0.75000000  0.07157900  0.90577900  1
  Cu  Cu10  1  0.25000000  0.42842100  0.40577900  1
  Cu  Cu11  1  0.75000000  0.57157900  0.59422100  1
  Cu  Cu12  1  0.75000000  0.08852800  0.31754400  1
  Cu  Cu13  1  0.25000000  0.91147200  0.68245600  1
  Cu  Cu14  1  0.75000000  0.58852800  0.18245600  1
  Cu  Cu15  1  0.25000000  0.41147200  0.81754400  1
  Cu  Cu16  1  0.25000000  0.26075500  0.10355500  1
  Cu  Cu17  1  0.75000000  0.73924500  0.89644500  1
  Cu  Cu18  1  0.25000000  0.76075500  0.39644500  1
  Cu  Cu19  1  0.75000000  0.23924500  0.60355500  1
