# generated using pymatgen
data_CuNi3C14
_symmetry_space_group_name_H-M   'P 1'
_cell_length_a   6.83561800
_cell_length_b   9.18683700
_cell_length_c   14.58536600
_cell_angle_alpha   90.00000000
_cell_angle_beta   90.00000000
_cell_angle_gamma   90.00000000
_symmetry_Int_Tables_number   1
_chemical_formula_structural   CuNi3C14
_chemical_formula_sum   'Cu4 Ni12 C56'
_cell_volume   915.92756040
_cell_formula_units_Z   4
loop_
 _symmetry_equiv_pos_site_id
 _symmetry_equiv_pos_as_xyz
  1  'x, y, z'
loop_
 _atom_site_type_symbol
 _atom_site_label
 _atom_site_symmetry_multiplicity
 _atom_site_fract_x
 _atom_site_fract_y
 _atom_site_fract_z
 _atom_site_occupancy
  C  C0  1  0.00000000  0.50000000  0.50000000  1
  C  C1  1  0.50000000  0.00000000  0.00000000  1
  C  C2  1  0.50000000  0.50000000  0.50000000  1
  C  C3  1  0.00000000  0.00000000  0.00000000  1
  C  C4  1  0.25000000  0.95837100  0.75580000  1
  C  C5  1  0.25000000  0.54162900  0.25580000  1
  C  C6  1  0.75000000  0.04162900  0.24420000  1
  C  C7  1  0.75000000  0.45837100  0.74420000  1
  C  C8  1  0.25000000  0.24576000  0.66311900  1
  C  C9  1  0.25000000  0.25424000  0.16311900  1
  C  C10  1  0.75000000  0.75424000  0.33688100  1
  C  C11  1  0.75000000  0.74576000  0.83688100  1
  C  C12  1  0.11900100  0.19657900  0.76548500  1
  C  C13  1  0.38099900  0.30342100  0.26548500  1
  C  C14  1  0.61900100  0.80342100  0.23451500  1
  C  C15  1  0.88099900  0.69657900  0.73451500  1
  C  C16  1  0.88099900  0.80342100  0.23451500  1
  C  C17  1  0.61900100  0.69657900  0.73451500  1
  C  C18  1  0.38099900  0.19657900  0.76548500  1
  C  C19  1  0.11900100  0.30342100  0.26548500  1
  C  C20  1  0.06564000  0.05704500  0.58315800  1
  C  C21  1  0.43436000  0.44295500  0.08315800  1
  C  C22  1  0.56564000  0.94295500  0.41684200  1
  C  C23  1  0.93436000  0.55704500  0.91684200  1
  C  C24  1  0.93436000  0.94295500  0.41684200  1
  C  C25  1  0.56564000  0.55704500  0.91684200  1
  C  C26  1  0.43436000  0.05704500  0.58315800  1
  C  C27  1  0.06564000  0.44295500  0.08315800  1
  C  C28  1  0.07569600  0.87066700  0.62160900  1
  C  C29  1  0.42430400  0.62933300  0.12160900  1
  C  C30  1  0.57569600  0.12933300  0.37839100  1
  C  C31  1  0.92430400  0.37066700  0.87839100  1
  C  C32  1  0.92430400  0.12933300  0.37839100  1
  C  C33  1  0.57569600  0.37066700  0.87839100  1
  C  C34  1  0.42430400  0.87066700  0.62160900  1
  C  C35  1  0.07569600  0.62933300  0.12160900  1
  C  C36  1  0.94225900  0.00558800  0.68621800  1
  C  C37  1  0.55774100  0.49441200  0.18621800  1
  C  C38  1  0.44225900  0.99441200  0.31378200  1
  C  C39  1  0.05774100  0.50558800  0.81378200  1
  C  C40  1  0.05774100  0.99441200  0.31378200  1
  C  C41  1  0.44225900  0.50558800  0.81378200  1
  C  C42  1  0.55774100  0.00558800  0.68621800  1
  C  C43  1  0.94225900  0.49441200  0.18621800  1
  Ni  Ni44  1  0.25000000  0.17689100  0.72439000  1
  Ni  Ni45  1  0.25000000  0.32310900  0.22439000  1
  Ni  Ni46  1  0.75000000  0.82310900  0.27561000  1
  Ni  Ni47  1  0.75000000  0.67689100  0.77561000  1
  Ni  Ni48  1  0.06990200  0.98503100  0.64279300  1
  Ni  Ni49  1  0.43009800  0.51496900  0.14279300  1
  Ni  Ni50  1  0.56990200  0.01496900  0.35720700  1
  Ni  Ni51  1  0.93009800  0.48503100  0.85720700  1
  Ni  Ni52  1  0.93009800  0.01496900  0.35720700  1
  Ni  Ni53  1  0.56990200  0.48503100  0.85720700  1
  Ni  Ni54  1  0.43009800  0.98503100  0.64279300  1
  Ni  Ni55  1  0.06990200  0.51496900  0.14279300  1
  Cu  Cu56  1  0.25000000  0.02092300  0.69594400  1
  Cu  Cu57  1  0.25000000  0.47907700  0.19594400  1
  Cu  Cu58  1  0.75000000  0.97907700  0.30405600  1
  Cu  Cu59  1  0.75000000  0.52092300  0.80405600  1
  C  C60  1  0.25000000  0.57478300  0.63418700  1
  C  C61  1  0.25000000  0.92521700  0.13418700  1
  C  C62  1  0.75000000  0.42521700  0.36581300  1
  C  C63  1  0.75000000  0.07478300  0.86581300  1
  C  C64  1  0.25000000  0.65309900  0.39178400  1
  C  C65  1  0.25000000  0.84690100  0.89178400  1
  C  C66  1  0.75000000  0.34690100  0.60821600  1
  C  C67  1  0.75000000  0.15309900  0.10821600  1
  C  C68  1  0.25000000  0.28196000  0.47220000  1
  C  C69  1  0.25000000  0.21804000  0.97220000  1
  C  C70  1  0.75000000  0.71804000  0.52780000  1
  C  C71  1  0.75000000  0.78196000  0.02780000  1
