# generated using pymatgen
data_Cu3NiC2
_symmetry_space_group_name_H-M   'P 1'
_cell_length_a   12.74327400
_cell_length_b   6.96519500
_cell_length_c   10.56677539
_cell_angle_alpha   56.01246389
_cell_angle_beta   90.00000000
_cell_angle_gamma   90.00000000
_symmetry_Int_Tables_number   1
_chemical_formula_structural   Cu3NiC2
_chemical_formula_sum   'Cu12 Ni4 C8'
_cell_volume   777.66884263
_cell_formula_units_Z   4
loop_
 _symmetry_equiv_pos_site_id
 _symmetry_equiv_pos_as_xyz
  1  'x, y, z'
loop_
 _atom_site_type_symbol
 _atom_site_label
 _atom_site_symmetry_multiplicity
 _atom_site_fract_x
 _atom_site_fract_y
 _atom_site_fract_z
 _atom_site_occupancy
  C  C0  1  0.16876600  0.26352800  0.48465100  1
  C  C1  1  0.66876600  0.73647200  0.01534900  1
  C  C2  1  0.83123400  0.73647200  0.51534900  1
  C  C3  1  0.33123400  0.26352800  0.98465100  1
  C  C4  1  0.05895400  0.68223600  0.86151800  1
  C  C5  1  0.55895400  0.31776400  0.63848200  1
  C  C6  1  0.94104600  0.31776400  0.13848200  1
  C  C7  1  0.44104600  0.68223600  0.36151800  1
  Ni  Ni8  1  0.46010800  0.85008900  0.61226400  1
  Ni  Ni9  1  0.96010800  0.14991100  0.88773600  1
  Ni  Ni10  1  0.53989200  0.14991100  0.38773600  1
  Ni  Ni11  1  0.03989200  0.85008900  0.11226400  1
  Cu  Cu12  1  0.32219700  0.74108400  0.54104800  1
  Cu  Cu13  1  0.82219700  0.25891600  0.95895200  1
  Cu  Cu14  1  0.67780300  0.25891600  0.45895200  1
  Cu  Cu15  1  0.17780300  0.74108400  0.04104800  1
  Cu  Cu16  1  0.41117800  0.99265900  0.74350100  1
  Cu  Cu17  1  0.91117800  0.00734100  0.75649900  1
  Cu  Cu18  1  0.58882200  0.00734100  0.25649900  1
  Cu  Cu19  1  0.08882200  0.99265900  0.24350100  1
  Cu  Cu20  1  0.57959600  0.57287700  0.74504800  1
  Cu  Cu21  1  0.07959600  0.42712300  0.75495200  1
  Cu  Cu22  1  0.42040400  0.42712300  0.25495200  1
  Cu  Cu23  1  0.92040400  0.57287700  0.24504800  1
