# generated using pymatgen
data_CuNiC7
_symmetry_space_group_name_H-M   'P 1'
_cell_length_a   5.16412600
_cell_length_b   5.49881424
_cell_length_c   19.81987838
_cell_angle_alpha   94.71242356
_cell_angle_beta   96.91754888
_cell_angle_gamma   99.60256416
_symmetry_Int_Tables_number   1
_chemical_formula_structural   CuNiC7
_chemical_formula_sum   'Cu6 Ni6 C42'
_cell_volume   547.87725053
_cell_formula_units_Z   6
loop_
 _symmetry_equiv_pos_site_id
 _symmetry_equiv_pos_as_xyz
  1  'x, y, z'
loop_
 _atom_site_type_symbol
 _atom_site_label
 _atom_site_symmetry_multiplicity
 _atom_site_fract_x
 _atom_site_fract_y
 _atom_site_fract_z
 _atom_site_occupancy
  C  C0  1  0.80268000  0.45047200  0.94049200  1
  C  C1  1  0.47075100  0.11436700  0.27396800  1
  C  C2  1  0.86518900  0.21184100  0.39205500  1
  C  C3  1  0.13931900  0.78798900  0.61069500  1
  C  C4  1  0.52555100  0.88507400  0.72439100  1
  C  C5  1  0.19463500  0.55063800  0.05908300  1
  C  C6  1  0.16207500  0.16970100  0.83295400  1
  C  C7  1  0.33302600  0.33745600  0.66685600  1
  C  C8  1  0.83243000  0.83299800  0.16643900  1
  C  C9  1  0.99845400  0.99997600  0.99979100  1
  C  C10  1  0.50488300  0.49701800  0.50092300  1
  C  C11  1  0.67039900  0.66329500  0.33277800  1
  Ni  Ni12  1  0.73743300  0.04652400  0.58847700  1
  Ni  Ni13  1  0.07355800  0.37756100  0.25568800  1
  Ni  Ni14  1  0.59283000  0.28744200  0.07756300  1
  Ni  Ni15  1  0.40290400  0.71347500  0.92181400  1
  Ni  Ni16  1  0.92567400  0.62963700  0.74505600  1
  Ni  Ni17  1  0.26909000  0.94482000  0.41158800  1
  Cu  Cu18  1  0.75033600  0.04520000  0.88615700  1
  Cu  Cu19  1  0.57998800  0.29253000  0.77827100  1
  Cu  Cu20  1  0.08665200  0.38202800  0.55616900  1
  Cu  Cu21  1  0.91562200  0.61188200  0.44626500  1
  Cu  Cu22  1  0.41789300  0.71075100  0.21895700  1
  Cu  Cu23  1  0.24733800  0.95626100  0.11366500  1
  C  C24  1  0.49033400  0.01955800  0.62549200  1
  C  C25  1  0.93074700  0.13514500  0.90749100  1
  C  C26  1  0.99219500  0.10654800  0.64262800  1
  C  C27  1  0.39844400  0.20220500  0.75734300  1
  C  C28  1  0.08552400  0.11448800  0.22138700  1
  C  C29  1  0.25484000  0.20165400  0.44869000  1
  C  C30  1  0.57870100  0.09003500  0.12792400  1
  C  C31  1  0.74322300  0.25388900  0.53995800  1
  C  C32  1  0.41357600  0.45010000  0.88726700  1
  C  C33  1  0.91278600  0.42893600  0.79466100  1
  C  C34  1  0.26736200  0.46956300  0.57676500  1
  C  C35  1  0.67369200  0.57137900  0.68957200  1
  C  C36  1  0.34174800  0.23391200  0.02296100  1
  C  C37  1  0.84283900  0.29752500  0.03963700  1
  C  C38  1  0.82300000  0.36550500  0.29342900  1
  C  C39  1  0.17398600  0.65261000  0.70819600  1
  C  C40  1  0.15453400  0.70235300  0.96031800  1
  C  C41  1  0.65535900  0.76487400  0.97586300  1
  C  C42  1  0.32330400  0.43021500  0.31065300  1
  C  C43  1  0.73513900  0.52857900  0.42527600  1
  C  C44  1  0.08656800  0.57560700  0.20549400  1
  C  C45  1  0.58056900  0.55042800  0.11159100  1
  C  C46  1  0.26477800  0.73876500  0.46022000  1
  C  C47  1  0.41604900  0.91274000  0.87197100  1
  C  C48  1  0.76141300  0.79292300  0.55067500  1
  C  C49  1  0.90399800  0.88924800  0.78080100  1
  C  C50  1  0.59937300  0.79956700  0.24002400  1
  C  C51  1  0.01539200  0.89315400  0.35847200  1
  C  C52  1  0.06600400  0.86692500  0.09258000  1
  C  C53  1  0.51581000  0.96263300  0.37256200  1
