# generated using pymatgen
data_CuNi3C8
_symmetry_space_group_name_H-M   'P 1'
_cell_length_a   10.08176108
_cell_length_b   10.08176108
_cell_length_c   10.08176108
_cell_angle_alpha   131.77862155
_cell_angle_beta   131.77862155
_cell_angle_gamma   70.57889560
_symmetry_Int_Tables_number   1
_chemical_formula_structural   CuNi3C8
_chemical_formula_sum   'Cu1 Ni3 C8'
_cell_volume   558.30937656
_cell_formula_units_Z   1
loop_
 _symmetry_equiv_pos_site_id
 _symmetry_equiv_pos_as_xyz
  1  'x, y, z'
loop_
 _atom_site_type_symbol
 _atom_site_label
 _atom_site_symmetry_multiplicity
 _atom_site_fract_x
 _atom_site_fract_y
 _atom_site_fract_z
 _atom_site_occupancy
  Ni  Ni0  1  0.75000000  0.25000000  0.50000000  1
  Ni  Ni1  1  0.50000000  0.50000000  0.00000000  1
  Ni  Ni2  1  0.25000000  0.75000000  0.50000000  1
  Cu  Cu3  1  0.00000000  0.00000000  0.00000000  1
  C  C4  1  0.63734800  0.12056000  0.00000000  1
  C  C5  1  0.12056000  0.12056000  0.48321200  1
  C  C6  1  0.36265200  0.36265200  0.48321200  1
  C  C7  1  0.87944000  0.36265200  0.00000000  1
  C  C8  1  0.12056000  0.63734800  0.00000000  1
  C  C9  1  0.63734800  0.63734800  0.51678800  1
  C  C10  1  0.87944000  0.87944000  0.51678800  1
  C  C11  1  0.36265200  0.87944000  0.00000000  1
