# generated using pymatgen
data_Cu(NiC3)2
_symmetry_space_group_name_H-M   'P 1'
_cell_length_a   8.38455061
_cell_length_b   8.38455061
_cell_length_c   4.41412300
_cell_angle_alpha   90.00000000
_cell_angle_beta   90.00000000
_cell_angle_gamma   120.00000479
_symmetry_Int_Tables_number   1
_chemical_formula_structural   Cu(NiC3)2
_chemical_formula_sum   'Cu3 Ni6 C18'
_cell_volume   268.74142897
_cell_formula_units_Z   3
loop_
 _symmetry_equiv_pos_site_id
 _symmetry_equiv_pos_as_xyz
  1  'x, y, z'
loop_
 _atom_site_type_symbol
 _atom_site_label
 _atom_site_symmetry_multiplicity
 _atom_site_fract_x
 _atom_site_fract_y
 _atom_site_fract_z
 _atom_site_occupancy
  Ni  Ni0  1  0.00000000  0.64346700  0.00000000  1
  Ni  Ni1  1  0.00000000  0.31147100  0.50000000  1
  Ni  Ni2  1  0.35653300  0.35653300  0.00000000  1
  Ni  Ni3  1  0.31147100  0.00000000  0.50000000  1
  Ni  Ni4  1  0.68852900  0.68852900  0.50000000  1
  Ni  Ni5  1  0.64346700  0.00000000  0.00000000  1
  Cu  Cu6  1  0.33333300  0.66666700  0.50439500  1
  Cu  Cu7  1  0.00000000  0.00000000  0.00000000  1
  Cu  Cu8  1  0.66666700  0.33333300  0.49560500  1
  C  C9  1  0.09598700  0.88271700  0.77354000  1
  C  C10  1  0.22375000  0.77336400  0.27158900  1
  C  C11  1  0.11832900  0.54224900  0.73503500  1
  C  C12  1  0.42392000  0.88167100  0.73503500  1
  C  C13  1  0.22663600  0.45038600  0.27158900  1
  C  C14  1  0.11728300  0.21327100  0.77354000  1
  C  C15  1  0.54961400  0.77625000  0.27158900  1
  C  C16  1  0.21327100  0.11728300  0.22646000  1
  C  C17  1  0.45775100  0.57608000  0.73503500  1
  C  C18  1  0.78672900  0.90401300  0.77354000  1
  C  C19  1  0.45038600  0.22663600  0.72841100  1
  C  C20  1  0.57608000  0.45775100  0.26496500  1
  C  C21  1  0.54224900  0.11832900  0.26496500  1
  C  C22  1  0.77625000  0.54961400  0.72841100  1
  C  C23  1  0.90401300  0.78672900  0.22646000  1
  C  C24  1  0.77336400  0.22375000  0.72841100  1
  C  C25  1  0.88167100  0.42392000  0.26496500  1
  C  C26  1  0.88271700  0.09598700  0.22646000  1
