# generated using pymatgen
data_Cu(Ni4C3)2
_symmetry_space_group_name_H-M   'P 1'
_cell_length_a   6.30715767
_cell_length_b   6.30715767
_cell_length_c   6.30715783
_cell_angle_alpha   53.15338660
_cell_angle_beta   53.15338660
_cell_angle_gamma   53.15338917
_symmetry_Int_Tables_number   1
_chemical_formula_structural   Cu(Ni4C3)2
_chemical_formula_sum   'Cu1 Ni8 C6'
_cell_volume   148.95706704
_cell_formula_units_Z   1
loop_
 _symmetry_equiv_pos_site_id
 _symmetry_equiv_pos_as_xyz
  1  'x, y, z'
loop_
 _atom_site_type_symbol
 _atom_site_label
 _atom_site_symmetry_multiplicity
 _atom_site_fract_x
 _atom_site_fract_y
 _atom_site_fract_z
 _atom_site_occupancy
  Ni  Ni0  1  0.35344000  0.35344000  0.35344000  1
  Ni  Ni1  1  0.89786800  0.50719800  0.22653600  1
  Ni  Ni2  1  0.50719800  0.22653600  0.89786800  1
  Ni  Ni3  1  0.22653600  0.89786800  0.50719800  1
  Ni  Ni4  1  0.10213200  0.49280200  0.77346400  1
  Ni  Ni5  1  0.49280200  0.77346400  0.10213200  1
  Ni  Ni6  1  0.64656000  0.64656000  0.64656000  1
  Ni  Ni7  1  0.77346400  0.10213200  0.49280200  1
  Cu  Cu8  1  0.00000000  0.00000000  0.00000000  1
  C  C9  1  0.89850500  0.24281700  0.60166400  1
  C  C10  1  0.39833600  0.10149500  0.75718300  1
  C  C11  1  0.10149500  0.75718300  0.39833600  1
  C  C12  1  0.24281700  0.60166400  0.89850500  1
  C  C13  1  0.60166400  0.89850500  0.24281700  1
  C  C14  1  0.75718300  0.39833600  0.10149500  1
