# generated using pymatgen
data_Cu9Ni3C7
_symmetry_space_group_name_H-M   'P 1'
_cell_length_a   10.32145825
_cell_length_b   10.32654830
_cell_length_c   11.01168282
_cell_angle_alpha   63.38850168
_cell_angle_beta   92.84858819
_cell_angle_gamma   62.04645633
_symmetry_Int_Tables_number   1
_chemical_formula_structural   Cu9Ni3C7
_chemical_formula_sum   'Cu36 Ni12 C28'
_cell_volume   875.37973940
_cell_formula_units_Z   4
loop_
 _symmetry_equiv_pos_site_id
 _symmetry_equiv_pos_as_xyz
  1  'x, y, z'
loop_
 _atom_site_type_symbol
 _atom_site_label
 _atom_site_symmetry_multiplicity
 _atom_site_fract_x
 _atom_site_fract_y
 _atom_site_fract_z
 _atom_site_occupancy
  C  C0  1  0.89617800  0.21638900  0.15488900  1
  C  C1  1  0.87296600  0.27544300  0.57040800  1
  C  C2  1  0.37005000  0.27292800  0.07611100  1
  C  C3  1  0.87300700  0.77025200  0.07605000  1
  C  C4  1  0.37070400  0.77490900  0.06682000  1
  C  C5  1  0.37198200  0.27124100  0.57716400  1
  C  C6  1  0.87226600  0.76151200  0.58844000  1
  C  C7  1  0.08923900  0.31188300  0.31688700  1
  C  C8  1  0.58955600  0.80644500  0.32023400  1
  C  C9  1  0.37566700  0.77187300  0.56960300  1
  C  C10  1  0.08945900  0.30806700  0.81717100  1
  C  C11  1  0.59033900  0.80675800  0.81872500  1
  C  C12  1  0.73762600  0.00758900  0.24001800  1
  C  C13  1  0.99877900  0.50388000  0.49522200  1
  C  C14  1  0.74515100  0.50273200  0.25041800  1
  C  C15  1  0.73972100  0.00953700  0.73931500  1
  C  C16  1  0.00007900  0.00764900  0.00661900  1
  C  C17  1  0.50354400  0.50467100  0.00647300  1
  C  C18  1  0.99811400  0.50231200  0.99407900  1
  C  C19  1  0.74679900  0.49760800  0.75454000  1
  C  C20  1  0.00313500  0.00293700  0.50904000  1
  C  C21  1  0.50342100  0.50362600  0.50743800  1
  C  C22  1  0.23912200  0.51019900  0.23817800  1
  C  C23  1  0.49848500  0.00399400  0.49574500  1
  C  C24  1  0.24745400  0.99920900  0.25029900  1
  C  C25  1  0.24022800  0.50923800  0.73935000  1
  C  C26  1  0.49819800  0.00394900  0.99462300  1
  C  C27  1  0.24561800  0.00128400  0.75092800  1
  Ni  Ni28  1  0.56585100  0.04613900  0.12203800  1
  Ni  Ni29  1  0.92732500  0.44018700  0.38231400  1
  Ni  Ni30  1  0.56717600  0.04698400  0.62179500  1
  Ni  Ni31  1  0.07855300  0.05032100  0.12934000  1
  Ni  Ni32  1  0.57952500  0.55089100  0.12786100  1
  Ni  Ni33  1  0.92752700  0.44925100  0.87290800  1
  Ni  Ni34  1  0.58079900  0.54906200  0.63021500  1
  Ni  Ni35  1  0.07882800  0.05049700  0.62980000  1
  Ni  Ni36  1  0.06756500  0.54478100  0.12192200  1
  Ni  Ni37  1  0.42714600  0.94092900  0.38221500  1
  Ni  Ni38  1  0.06858300  0.54779900  0.62058000  1
  Ni  Ni39  1  0.42747600  0.94048300  0.88118200  1
  Cu  Cu40  1  0.69686800  0.25151900  0.11757200  1
  Cu  Cu41  1  0.88758200  0.41556300  0.13768700  1
  Cu  Cu42  1  0.62645600  0.05794300  0.37630800  1
  Cu  Cu43  1  0.81339700  0.25039000  0.38314800  1
  Cu  Cu44  1  0.70057000  0.25222800  0.61391500  1
  Cu  Cu45  1  0.88010700  0.92333500  0.12855900  1
  Cu  Cu46  1  0.38237500  0.42231400  0.12898800  1
  Cu  Cu47  1  0.88880600  0.41672000  0.63736900  1
  Cu  Cu48  1  0.19714600  0.24959900  0.12210500  1
  Cu  Cu49  1  0.69727900  0.75125600  0.12334500  1
  Cu  Cu50  1  0.62432000  0.06079900  0.87426700  1
  Cu  Cu51  1  0.81173200  0.24962500  0.88109000  1
  Cu  Cu52  1  0.11461700  0.08537100  0.36483000  1
  Cu  Cu53  1  0.62145800  0.58058700  0.37070000  1
  Cu  Cu54  1  0.30246500  0.25202300  0.38399700  1
  Cu  Cu55  1  0.80224700  0.75151600  0.38509800  1
  Cu  Cu56  1  0.42751000  0.43927400  0.38327200  1
  Cu  Cu57  1  0.92807400  0.95138400  0.37188100  1
  Cu  Cu58  1  0.88223800  0.91948600  0.62941700  1
  Cu  Cu59  1  0.38228300  0.42121500  0.63022800  1
  Cu  Cu60  1  0.19714300  0.75534300  0.11510700  1
  Cu  Cu61  1  0.69398500  0.75106100  0.62414600  1
  Cu  Cu62  1  0.19732200  0.25045900  0.62380300  1
  Cu  Cu63  1  0.38824900  0.91478800  0.13707000  1
  Cu  Cu64  1  0.12440800  0.56035700  0.37355700  1
  Cu  Cu65  1  0.31246100  0.75107800  0.38986200  1
  Cu  Cu66  1  0.61832700  0.58345800  0.86838400  1
  Cu  Cu67  1  0.12197400  0.07968200  0.87181800  1
  Cu  Cu68  1  0.30214300  0.25182700  0.88350900  1
  Cu  Cu69  1  0.80220400  0.75203800  0.88520100  1
  Cu  Cu70  1  0.42880300  0.43828700  0.88387900  1
  Cu  Cu71  1  0.92866800  0.93776600  0.88487200  1
  Cu  Cu72  1  0.19972300  0.75344400  0.61589900  1
  Cu  Cu73  1  0.38539900  0.91859700  0.63591600  1
  Cu  Cu74  1  0.12742300  0.55886300  0.87571500  1
  Cu  Cu75  1  0.31195400  0.75159300  0.88925900  1
