# generated using pymatgen
data_CuNiC5
_symmetry_space_group_name_H-M   'P 1'
_cell_length_a   5.01936500
_cell_length_b   6.07637700
_cell_length_c   11.30198900
_cell_angle_alpha   90.00000000
_cell_angle_beta   90.00000000
_cell_angle_gamma   90.00000000
_symmetry_Int_Tables_number   1
_chemical_formula_structural   CuNiC5
_chemical_formula_sum   'Cu4 Ni4 C20'
_cell_volume   344.70562427
_cell_formula_units_Z   4
loop_
 _symmetry_equiv_pos_site_id
 _symmetry_equiv_pos_as_xyz
  1  'x, y, z'
loop_
 _atom_site_type_symbol
 _atom_site_label
 _atom_site_symmetry_multiplicity
 _atom_site_fract_x
 _atom_site_fract_y
 _atom_site_fract_z
 _atom_site_occupancy
  C  C0  1  0.24301900  0.01003200  0.17263100  1
  C  C1  1  0.74301900  0.51003200  0.32736900  1
  C  C2  1  0.24301900  0.48996800  0.67263100  1
  C  C3  1  0.74301900  0.98996800  0.82736900  1
  Ni  Ni4  1  0.74458900  0.25996100  0.07797300  1
  Ni  Ni5  1  0.24458900  0.75996100  0.42202700  1
  Ni  Ni6  1  0.74458900  0.24003900  0.57797300  1
  Ni  Ni7  1  0.24458900  0.74003900  0.92202700  1
  Cu  Cu8  1  0.74861000  0.75991400  0.08330400  1
  Cu  Cu9  1  0.24861000  0.25991400  0.41669600  1
  Cu  Cu10  1  0.74861000  0.74008600  0.58330400  1
  Cu  Cu11  1  0.24861000  0.24008600  0.91669600  1
  C  C12  1  0.11944900  0.24443500  0.05199700  1
  C  C13  1  0.07625200  0.77015700  0.07162500  1
  C  C14  1  0.66767600  0.53351600  0.15535300  1
  C  C15  1  0.64276500  0.98529300  0.15077500  1
  C  C16  1  0.14276500  0.48529300  0.34922500  1
  C  C17  1  0.16767600  0.03351600  0.34464700  1
  C  C18  1  0.57625200  0.27015700  0.42837500  1
  C  C19  1  0.61944900  0.74443500  0.44800300  1
  C  C20  1  0.11944900  0.25556500  0.55199700  1
  C  C21  1  0.07625200  0.72984300  0.57162500  1
  C  C22  1  0.66767600  0.96648400  0.65535300  1
  C  C23  1  0.64276500  0.51470700  0.65077500  1
  C  C24  1  0.14276500  0.01470700  0.84922500  1
  C  C25  1  0.16767600  0.46648400  0.84464700  1
  C  C26  1  0.57625200  0.22984300  0.92837500  1
  C  C27  1  0.61944900  0.75556500  0.94800300  1
