# generated using pymatgen
data_Cu(Ni2C7)2
_symmetry_space_group_name_H-M   'P 1'
_cell_length_a   11.89757100
_cell_length_b   7.71807036
_cell_length_c   7.69029245
_cell_angle_alpha   93.72579471
_cell_angle_beta   92.51589318
_cell_angle_gamma   104.99619880
_symmetry_Int_Tables_number   1
_chemical_formula_structural   Cu(Ni2C7)2
_chemical_formula_sum   'Cu3 Ni12 C42'
_cell_volume   679.32778512
_cell_formula_units_Z   3
loop_
 _symmetry_equiv_pos_site_id
 _symmetry_equiv_pos_as_xyz
  1  'x, y, z'
loop_
 _atom_site_type_symbol
 _atom_site_label
 _atom_site_symmetry_multiplicity
 _atom_site_fract_x
 _atom_site_fract_y
 _atom_site_fract_z
 _atom_site_occupancy
  C  C0  1  0.78087100  0.47640100  0.95631600  1
  C  C1  1  0.78169000  0.81313500  0.61945200  1
  C  C2  1  0.28183300  0.81670200  0.13228800  1
  C  C3  1  0.78419200  0.14926400  0.79712700  1
  C  C4  1  0.78279000  0.48077600  0.46306100  1
  C  C5  1  0.78160400  0.14576900  0.29273900  1
  Ni  Ni6  1  0.51188000  0.67007600  0.84346800  1
  Ni  Ni7  1  0.99526500  0.66893800  0.82933000  1
  Ni  Ni8  1  0.49673500  0.33076000  0.66638200  1
  Ni  Ni9  1  0.50055800  0.66350500  0.34058600  1
  Ni  Ni10  1  0.99570500  0.33495100  0.66227200  1
  Ni  Ni11  1  0.99460800  0.66904800  0.32264000  1
  Ni  Ni12  1  0.50608700  0.00218700  0.50372800  1
  Ni  Ni13  1  0.50481300  0.33457300  0.17077600  1
  Ni  Ni14  1  0.99986400  0.00490900  0.49907300  1
  Ni  Ni15  1  0.00263700  0.33684000  0.16504000  1
  Ni  Ni16  1  0.49689000  0.99996000  0.99778300  1
  Ni  Ni17  1  0.99049200  0.99579600  0.99357100  1
  Cu  Cu18  1  0.27609900  0.48318700  0.95679500  1
  Cu  Cu19  1  0.27288300  0.81144500  0.62606000  1
  Cu  Cu20  1  0.27427200  0.14576700  0.28977700  1
  C  C21  1  0.41515600  0.96383100  0.74763700  1
  C  C22  1  0.91889200  0.84053500  0.87051800  1
  C  C23  1  0.23237100  0.72286400  0.81519800  1
  C  C24  1  0.73966300  0.63488300  0.89984700  1
  C  C25  1  0.73548000  0.97168600  0.56825000  1
  C  C26  1  0.04056000  0.51097200  0.84366900  1
  C  C27  1  0.04115700  0.84609100  0.50913600  1
  C  C28  1  0.54246800  0.38421100  0.96073200  1
  C  C29  1  0.54108300  0.72102000  0.62974600  1
  C  C30  1  0.42516600  0.51328900  0.74042200  1
  C  C31  1  0.42016900  0.84530000  0.38649000  1
  C  C32  1  0.91382400  0.30766600  0.92157400  1
  C  C33  1  0.91901700  0.63674500  0.58568200  1
  C  C34  1  0.92121700  0.98330900  0.25835400  1
  C  C35  1  0.23375400  0.31839500  0.73274200  1
  C  C36  1  0.23281700  0.65426500  0.40683000  1
  C  C37  1  0.23052900  0.97620300  0.07206400  1
  C  C38  1  0.73233500  0.05530200  0.98883500  1
  C  C39  1  0.73108800  0.39091900  0.65658900  1
  C  C40  1  0.73464300  0.71855300  0.33579300  1
  C  C41  1  0.02470000  0.05132100  0.79312900  1
  C  C42  1  0.02255600  0.38345300  0.45381900  1
  C  C43  1  0.04950600  0.71933200  0.12219800  1
  C  C44  1  0.54853100  0.17710400  0.66969200  1
  C  C45  1  0.54623500  0.50809000  0.33632000  1
  C  C46  1  0.52236500  0.84353900  0.00330500  1
  C  C47  1  0.41544400  0.29860000  0.41776900  1
  C  C48  1  0.41387400  0.63773300  0.08974600  1
  C  C49  1  0.91626800  0.17662100  0.55234200  1
  C  C50  1  0.91929500  0.51063700  0.21205400  1
  C  C51  1  0.23554700  0.05573200  0.47581100  1
  C  C52  1  0.23497500  0.38995200  0.13903400  1
  C  C53  1  0.73564400  0.30488600  0.23217200  1
  C  C54  1  0.04457700  0.17994000  0.17432500  1
  C  C55  1  0.54241300  0.05233100  0.29347900  1
  C  C56  1  0.42129500  0.17559100  0.06808100  1
