# generated using pymatgen
data_CuNi3C4
_symmetry_space_group_name_H-M   'P 1'
_cell_length_a   7.39180079
_cell_length_b   7.39180079
_cell_length_c   7.39180078
_cell_angle_alpha   65.41879073
_cell_angle_beta   65.41879073
_cell_angle_gamma   65.41879491
_symmetry_Int_Tables_number   1
_chemical_formula_structural   CuNi3C4
_chemical_formula_sum   'Cu2 Ni6 C8'
_cell_volume   319.25314210
_cell_formula_units_Z   2
loop_
 _symmetry_equiv_pos_site_id
 _symmetry_equiv_pos_as_xyz
  1  'x, y, z'
loop_
 _atom_site_type_symbol
 _atom_site_label
 _atom_site_symmetry_multiplicity
 _atom_site_fract_x
 _atom_site_fract_y
 _atom_site_fract_z
 _atom_site_occupancy
  C  C0  1  0.32922900  0.75000000  0.17077100  1
  C  C1  1  0.17077100  0.32922900  0.75000000  1
  C  C2  1  0.75000000  0.17077100  0.32922900  1
  C  C3  1  0.67077100  0.25000000  0.82922900  1
  C  C4  1  0.82922900  0.67077100  0.25000000  1
  C  C5  1  0.25000000  0.82922900  0.67077100  1
  C  C6  1  0.25000000  0.25000000  0.25000000  1
  C  C7  1  0.75000000  0.75000000  0.75000000  1
  Ni  Ni8  1  0.91402000  0.75000000  0.58598000  1
  Ni  Ni9  1  0.58598000  0.91402000  0.75000000  1
  Ni  Ni10  1  0.75000000  0.58598000  0.91402000  1
  Ni  Ni11  1  0.08598000  0.25000000  0.41402000  1
  Ni  Ni12  1  0.25000000  0.41402000  0.08598000  1
  Ni  Ni13  1  0.41402000  0.08598000  0.25000000  1
  Cu  Cu14  1  0.00000000  0.00000000  0.00000000  1
  Cu  Cu15  1  0.50000000  0.50000000  0.50000000  1
