# generated using pymatgen
data_Cu3NiC2
_symmetry_space_group_name_H-M   'P 1'
_cell_length_a   4.84261560
_cell_length_b   4.84261560
_cell_length_c   15.64950100
_cell_angle_alpha   90.00000000
_cell_angle_beta   90.00000000
_cell_angle_gamma   91.76751104
_symmetry_Int_Tables_number   1
_chemical_formula_structural   Cu3NiC2
_chemical_formula_sum   'Cu15 Ni5 C10'
_cell_volume   366.82067506
_cell_formula_units_Z   5
loop_
 _symmetry_equiv_pos_site_id
 _symmetry_equiv_pos_as_xyz
  1  'x, y, z'
loop_
 _atom_site_type_symbol
 _atom_site_label
 _atom_site_symmetry_multiplicity
 _atom_site_fract_x
 _atom_site_fract_y
 _atom_site_fract_z
 _atom_site_occupancy
  C  C0  1  0.96914500  0.96914500  0.00000000  1
  C  C1  1  0.02350300  0.02350300  0.19967700  1
  C  C2  1  0.01233100  0.01233100  0.39979600  1
  C  C3  1  0.01233100  0.01233100  0.60020400  1
  C  C4  1  0.02350300  0.02350300  0.80032300  1
  C  C5  1  0.50094100  0.50094100  0.09969000  1
  C  C6  1  0.47511000  0.47511000  0.50000000  1
  C  C7  1  0.47552300  0.47552300  0.29931400  1
  C  C8  1  0.47552300  0.47552300  0.70068600  1
  C  C9  1  0.50094100  0.50094100  0.90031000  1
  Ni  Ni10  1  0.32110800  0.32110800  0.19675200  1
  Ni  Ni11  1  0.31167200  0.31167200  0.39950200  1
  Ni  Ni12  1  0.31167200  0.31167200  0.60049800  1
  Ni  Ni13  1  0.32110800  0.32110800  0.80324800  1
  Ni  Ni14  1  0.67161900  0.67161900  0.00000000  1
  Cu  Cu15  1  0.79021700  0.20591500  0.09979300  1
  Cu  Cu16  1  0.79259100  0.21216300  0.29942200  1
  Cu  Cu17  1  0.78970400  0.20926200  0.50000000  1
  Cu  Cu18  1  0.79259100  0.21216300  0.70057800  1
  Cu  Cu19  1  0.79021700  0.20591500  0.90020700  1
  Cu  Cu20  1  0.28994200  0.28994200  0.00000000  1
  Cu  Cu21  1  0.70451800  0.70451800  0.20152600  1
  Cu  Cu22  1  0.69712800  0.69712800  0.39990100  1
  Cu  Cu23  1  0.69712800  0.69712800  0.60009900  1
  Cu  Cu24  1  0.70451800  0.70451800  0.79847400  1
  Cu  Cu25  1  0.20591500  0.79021600  0.09979300  1
  Cu  Cu26  1  0.20926200  0.78970400  0.50000000  1
  Cu  Cu27  1  0.21216300  0.79259100  0.29942200  1
  Cu  Cu28  1  0.20591500  0.79021600  0.90020700  1
  Cu  Cu29  1  0.21216300  0.79259100  0.70057800  1
