# generated using pymatgen
data_Cu3NiC2
_symmetry_space_group_name_H-M   'P 1'
_cell_length_a   4.60115665
_cell_length_b   5.50591607
_cell_length_c   10.21821296
_cell_angle_alpha   97.15011546
_cell_angle_beta   89.40890584
_cell_angle_gamma   90.27011319
_symmetry_Int_Tables_number   1
_chemical_formula_structural   Cu3NiC2
_chemical_formula_sum   'Cu12 Ni4 C8'
_cell_volume   256.83566698
_cell_formula_units_Z   4
loop_
 _symmetry_equiv_pos_site_id
 _symmetry_equiv_pos_as_xyz
  1  'x, y, z'
loop_
 _atom_site_type_symbol
 _atom_site_label
 _atom_site_symmetry_multiplicity
 _atom_site_fract_x
 _atom_site_fract_y
 _atom_site_fract_z
 _atom_site_occupancy
  C  C0  1  0.00000000  0.00000100  0.99999900  1
  C  C1  1  0.50000200  0.99999800  0.50000100  1
  C  C2  1  0.00000000  0.49999900  0.50000000  1
  C  C3  1  0.96805200  0.73040700  0.24610200  1
  C  C4  1  0.03195100  0.26959300  0.75389800  1
  C  C5  1  0.49999800  0.50000200  0.00000000  1
  C  C6  1  0.47084600  0.27095300  0.25551700  1
  C  C7  1  0.52915300  0.72904400  0.74448300  1
  Ni  Ni8  1  0.69336400  0.52637200  0.17276900  1
  Ni  Ni9  1  0.18982300  0.46986500  0.33141300  1
  Ni  Ni10  1  0.81017800  0.53013500  0.66858700  1
  Ni  Ni11  1  0.30663800  0.47363300  0.82723100  1
  Cu  Cu12  1  0.19593100  0.71720300  0.07425600  1
  Cu  Cu13  1  0.68903100  0.27597400  0.42229000  1
  Cu  Cu14  1  0.31097100  0.72402100  0.57771100  1
  Cu  Cu15  1  0.80406400  0.28279900  0.92574300  1
  Cu  Cu16  1  0.30290700  0.22844000  0.07421700  1
  Cu  Cu17  1  0.80072200  0.77419500  0.42693900  1
  Cu  Cu18  1  0.19927800  0.22580000  0.57306000  1
  Cu  Cu19  1  0.69708800  0.77156200  0.92578300  1
  Cu  Cu20  1  0.77596200  0.02967400  0.18273300  1
  Cu  Cu21  1  0.27391600  0.96601300  0.31377200  1
  Cu  Cu22  1  0.72608600  0.03398500  0.68622900  1
  Cu  Cu23  1  0.22404100  0.97033000  0.81726800  1
