# generated using pymatgen
data_Cu7NiC6
_symmetry_space_group_name_H-M   'P 1'
_cell_length_a   6.06976900
_cell_length_b   6.06998832
_cell_length_c   10.49589376
_cell_angle_alpha   106.77761086
_cell_angle_beta   90.06995551
_cell_angle_gamma   119.91086994
_symmetry_Int_Tables_number   1
_chemical_formula_structural   Cu7NiC6
_chemical_formula_sum   'Cu14 Ni2 C12'
_cell_volume   315.98050907
_cell_formula_units_Z   2
loop_
 _symmetry_equiv_pos_site_id
 _symmetry_equiv_pos_as_xyz
  1  'x, y, z'
loop_
 _atom_site_type_symbol
 _atom_site_label
 _atom_site_symmetry_multiplicity
 _atom_site_fract_x
 _atom_site_fract_y
 _atom_site_fract_z
 _atom_site_occupancy
  C  C0  1  0.00442300  0.00596000  0.00058100  1
  C  C1  1  0.67839000  0.74314700  0.68835000  1
  C  C2  1  0.68965900  0.25306500  0.18848300  1
  C  C3  1  0.86937600  0.48455400  0.87171500  1
  C  C4  1  0.39812600  0.51237900  0.37171700  1
  C  C5  1  0.48979400  0.99161200  0.50058000  1
  C  C6  1  0.68591900  0.24202100  0.69442100  1
  C  C7  1  0.44382700  0.76301700  0.93174100  1
  C  C8  1  0.16280400  0.24351900  0.69356500  1
  C  C9  1  0.17293600  0.22794300  0.19432900  1
  C  C10  1  0.93942300  0.75818200  0.43170400  1
  C  C11  1  0.17357600  0.75335600  0.19364600  1
  Ni  Ni12  1  0.79828300  0.21992800  0.80920600  1
  Ni  Ni13  1  0.85053900  0.77120000  0.30912900  1
  Cu  Cu14  1  0.02961700  0.73080900  0.56224500  1
  Cu  Cu15  1  0.03767100  0.22380300  0.57103700  1
  Cu  Cu16  1  0.80172000  0.75155400  0.80723300  1
  Cu  Cu17  1  0.06538000  0.73560200  0.06676800  1
  Cu  Cu18  1  0.32537900  0.26132900  0.80239000  1
  Cu  Cu19  1  0.56165500  0.73207200  0.56659100  1
  Cu  Cu20  1  0.82942300  0.26426200  0.30245900  1
  Cu  Cu21  1  0.54897100  0.25200000  0.57424700  1
  Cu  Cu22  1  0.52339500  0.72567000  0.07413700  1
  Cu  Cu23  1  0.08064800  0.28137000  0.06213700  1
  Cu  Cu24  1  0.32836700  0.24844600  0.30580400  1
  Cu  Cu25  1  0.33106900  0.75237100  0.80575200  1
  Cu  Cu26  1  0.56100300  0.24617800  0.07102200  1
  Cu  Cu27  1  0.32438700  0.77337700  0.30732100  1
