# generated using pymatgen
data_CuNiC23
_symmetry_space_group_name_H-M   'P 1'
_cell_length_a   8.81680286
_cell_length_b   9.53494948
_cell_length_c   29.60666731
_cell_angle_alpha   90.00000000
_cell_angle_beta   90.00000000
_cell_angle_gamma   90.00000000
_symmetry_Int_Tables_number   1
_chemical_formula_structural   CuNiC23
_chemical_formula_sum   'Cu8 Ni8 C184'
_cell_volume   2488.96649330
_cell_formula_units_Z   8
loop_
 _symmetry_equiv_pos_site_id
 _symmetry_equiv_pos_as_xyz
  1  'x, y, z'
loop_
 _atom_site_type_symbol
 _atom_site_label
 _atom_site_symmetry_multiplicity
 _atom_site_fract_x
 _atom_site_fract_y
 _atom_site_fract_z
 _atom_site_occupancy
  Ni  Ni0  1  0.08629502  0.09363295  0.05622354  1
  Ni  Ni1  1  0.08629502  0.59363295  0.44377646  1
  Ni  Ni2  1  0.41370498  0.09363295  0.55622354  1
  Ni  Ni3  1  0.41370498  0.59363295  0.94377646  1
  Ni  Ni4  1  0.58629502  0.40636705  0.05622354  1
  Ni  Ni5  1  0.58629502  0.90636705  0.44377646  1
  Ni  Ni6  1  0.91370498  0.40636705  0.55622354  1
  Ni  Ni7  1  0.91370498  0.90636705  0.94377646  1
  Cu  Cu8  1  0.16252753  0.02916935  0.19078311  1
  Cu  Cu9  1  0.16252753  0.52916935  0.30921689  1
  Cu  Cu10  1  0.33747247  0.02916935  0.69078311  1
  Cu  Cu11  1  0.33747247  0.52916935  0.80921689  1
  Cu  Cu12  1  0.66252753  0.47083065  0.19078311  1
  Cu  Cu13  1  0.66252753  0.97083065  0.30921689  1
  Cu  Cu14  1  0.83747247  0.47083065  0.69078311  1
  Cu  Cu15  1  0.83747247  0.97083065  0.80921689  1
  C  C16  1  0.04957523  0.69867606  0.04199315  1
  C  C17  1  0.04957523  0.19867606  0.45800685  1
  C  C18  1  0.10622175  0.65039680  0.19638768  1
  C  C19  1  0.10622175  0.15039680  0.30361232  1
  C  C20  1  0.22242240  0.31889561  0.62507134  1
  C  C21  1  0.22242240  0.81889561  0.87492866  1
  C  C22  1  0.27757760  0.31889561  0.12507134  1
  C  C23  1  0.27757760  0.81889561  0.37492866  1
  C  C24  1  0.39377825  0.15039680  0.80361232  1
  C  C25  1  0.39377825  0.65039680  0.69638768  1
  C  C26  1  0.45042477  0.69867606  0.54199315  1
  C  C27  1  0.45042477  0.19867606  0.95800685  1
  C  C28  1  0.54957523  0.30132394  0.45800685  1
  C  C29  1  0.54957523  0.80132394  0.04199315  1
  C  C30  1  0.60622175  0.34960320  0.30361232  1
  C  C31  1  0.60622175  0.84960320  0.19638768  1
  C  C32  1  0.72242240  0.18110439  0.62507134  1
  C  C33  1  0.72242240  0.68110439  0.87492866  1
  C  C34  1  0.77757760  0.18110439  0.12507134  1
  C  C35  1  0.77757760  0.68110439  0.37492866  1
  C  C36  1  0.89377825  0.84960320  0.69638768  1
  C  C37  1  0.89377825  0.34960320  0.80361232  1
  C  C38  1  0.95042477  0.30132394  0.95800685  1
  C  C39  1  0.95042477  0.80132394  0.54199315  1
  C  C40  1  0.05608663  0.04432941  0.62033798  1
  C  C41  1  0.05608663  0.54432941  0.87966202  1
  C  C42  1  0.09368341  0.61701596  0.63257711  1
  C  C43  1  0.09368341  0.11701596  0.86742289  1
  C  C44  1  0.18936289  0.35943702  0.73348247  1
  C  C45  1  0.18936289  0.85943702  0.76651753  1
  C  C46  1  0.23087277  0.40415095  0.01635805  1
  C  C47  1  0.23087277  0.90415095  0.48364195  1
  C  C48  1  0.26912723  0.40415095  0.51635805  1
  C  C49  1  0.26912723  0.90415095  0.98364195  1
  C  C50  1  0.31063711  0.35943702  0.23348247  1
  C  C51  1  0.31063711  0.85943702  0.26651753  1
  C  C52  1  0.40631659  0.11701596  0.36742289  1
  C  C53  1  0.40631659  0.61701596  0.13257711  1
  C  C54  1  0.44391337  0.04432941  0.12033798  1
  C  C55  1  0.44391337  0.54432941  0.37966202  1
  C  C56  1  0.55608663  0.45567059  0.62033798  1
  C  C57  1  0.55608663  0.95567059  0.87966202  1
  C  C58  1  0.59368341  0.38298404  0.86742289  1
  C  C59  1  0.59368341  0.88298404  0.63257711  1
  C  C60  1  0.68936289  0.14056298  0.73348247  1
  C  C61  1  0.68936289  0.64056298  0.76651753  1
  C  C62  1  0.73087277  0.09584905  0.01635805  1
  C  C63  1  0.73087277  0.59584905  0.48364195  1
  C  C64  1  0.76912723  0.09584905  0.51635805  1
  C  C65  1  0.76912723  0.59584905  0.98364195  1
  C  C66  1  0.81063711  0.14056298  0.23348247  1
  C  C67  1  0.81063711  0.64056298  0.26651753  1
  C  C68  1  0.90631659  0.38298404  0.36742289  1
  C  C69  1  0.90631659  0.88298404  0.13257711  1
  C  C70  1  0.94391337  0.95567059  0.37966202  1
  C  C71  1  0.94391337  0.45567059  0.12033798  1
  C  C72  1  0.00516019  0.82220903  0.17104135  1
  C  C73  1  0.00516019  0.32220903  0.32895865  1
  C  C74  1  0.01544652  0.36732765  0.74150204  1
  C  C75  1  0.01544652  0.86732765  0.75849796  1
  C  C76  1  0.03091380  0.94989499  0.57984954  1
  C  C77  1  0.03091380  0.44989499  0.92015046  1
  C  C78  1  0.04465890  0.66606987  0.58565763  1
  C  C79  1  0.04465890  0.16606987  0.91434237  1
  C  C80  1  0.05626064  0.96961363  0.66685944  1
  C  C81  1  0.05626064  0.46961363  0.83314056  1
  C  C82  1  0.05727934  0.45408954  0.63701683  1
  C  C83  1  0.05727934  0.95408954  0.86298317  1
  C  C84  1  0.05833898  0.33137513  0.12112631  1
  C  C85  1  0.05833898  0.83137513  0.37887369  1
  C  C86  1  0.08639035  0.31269877  0.00960898  1
  C  C87  1  0.08639035  0.81269877  0.49039102  1
  C  C88  1  0.15488064  0.87361566  0.02244000  1
  C  C89  1  0.15488064  0.37361566  0.47756000  1
  C  C90  1  0.19141086  0.35793031  0.56096716  1
  C  C91  1  0.19141086  0.85793031  0.93903284  1
  C  C92  1  0.19986683  0.56358625  0.01619965  1
  C  C93  1  0.19986683  0.06358625  0.48380035  1
  C  C94  1  0.21916317  0.11124158  0.61629545  1
  C  C95  1  0.21916317  0.61124158  0.88370455  1
  C  C96  1  0.22602554  0.26599356  0.69189273  1
  C  C97  1  0.22602554  0.76599356  0.80810727  1
  C  C98  1  0.23392453  0.30141011  0.27643124  1
  C  C99  1  0.23392453  0.80141011  0.22356876  1
  C  C100  1  0.23429747  0.13701947  0.36024843  1
  C  C101  1  0.23429747  0.63701947  0.13975157  1
  C  C102  1  0.24456005  0.00946603  0.27204313  1
  C  C103  1  0.24456005  0.50946603  0.22795687  1
  C  C104  1  0.25543995  0.00946603  0.77204313  1
  C  C105  1  0.25543995  0.50946603  0.72795687  1
  C  C106  1  0.26570253  0.13701947  0.86024843  1
  C  C107  1  0.26570253  0.63701947  0.63975157  1
  C  C108  1  0.26607547  0.30141011  0.77643124  1
  C  C109  1  0.26607547  0.80141011  0.72356876  1
  C  C110  1  0.27397446  0.26599356  0.19189373  1
  C  C111  1  0.27397446  0.76599356  0.30810727  1
  C  C112  1  0.28083683  0.11124158  0.11629545  1
  C  C113  1  0.28083683  0.61124158  0.38370455  1
  C  C114  1  0.30013317  0.56358625  0.51619965  1
  C  C115  1  0.30013317  0.06358625  0.98380035  1
  C  C116  1  0.30858914  0.35793031  0.06096716  1
  C  C117  1  0.30858914  0.85793031  0.43903284  1
  C  C118  1  0.34511936  0.87361566  0.52244000  1
  C  C119  1  0.34511936  0.37361566  0.97756000  1
  C  C120  1  0.41360965  0.31269877  0.50960898  1
  C  C121  1  0.41360965  0.81269877  0.99039102  1
  C  C122  1  0.44166102  0.33137513  0.62112631  1
  C  C123  1  0.44166102  0.83137513  0.87887369  1
  C  C124  1  0.44272066  0.45408954  0.13701683  1
  C  C125  1  0.44272066  0.95408954  0.36298317  1
  C  C126  1  0.44373936  0.46961363  0.33314056  1
  C  C127  1  0.44373936  0.96961363  0.16685944  1
  C  C128  1  0.45534110  0.66606987  0.08565763  1
  C  C129  1  0.45534110  0.16606987  0.41434237  1
  C  C130  1  0.46908620  0.44989499  0.42015046  1
  C  C131  1  0.46908620  0.94989499  0.07984954  1
  C  C132  1  0.48455348  0.36732765  0.24150204  1
  C  C133  1  0.48455348  0.86732765  0.25849796  1
  C  C134  1  0.49483981  0.32220903  0.82895865  1
  C  C135  1  0.49483981  0.82220903  0.67104135  1
  C  C136  1  0.50516019  0.67779097  0.17104135  1
  C  C137  1  0.50516019  0.17779097  0.32895865  1
  C  C138  1  0.51544652  0.13267235  0.74150204  1
  C  C139  1  0.51544652  0.63267235  0.75849796  1
  C  C140  1  0.53091380  0.55010501  0.57984954  1
  C  C141  1  0.53091380  0.05010501  0.92015046  1
  C  C142  1  0.54465890  0.33393013  0.91434237  1
  C  C143  1  0.54465890  0.83393013  0.58565763  1
  C  C144  1  0.55626064  0.53038637  0.66685944  1
  C  C145  1  0.55626064  0.03038637  0.83314056  1
  C  C146  1  0.55727934  0.04591046  0.63701683  1
  C  C147  1  0.55727934  0.54591046  0.86298317  1
  C  C148  1  0.55833898  0.16862487  0.12112631  1
  C  C149  1  0.55833898  0.66862487  0.37887369  1
  C  C150  1  0.58639035  0.18730123  0.00960898  1
  C  C151  1  0.58639035  0.68730123  0.49039102  1
  C  C152  1  0.65488064  0.62638434  0.02244000  1
  C  C153  1  0.65488064  0.12638434  0.47756000  1
  C  C154  1  0.69141086  0.14206969  0.56096716  1
  C  C155  1  0.69141086  0.64206969  0.93903284  1
  C  C156  1  0.69986683  0.43641375  0.48380035  1
  C  C157  1  0.69986683  0.93641375  0.01619965  1
  C  C158  1  0.71916317  0.38875842  0.61629545  1
  C  C159  1  0.71916317  0.88875842  0.88370455  1
  C  C160  1  0.72602554  0.23400644  0.69189273  1
  C  C161  1  0.72602554  0.73400644  0.80810727  1
  C  C162  1  0.73392453  0.69858989  0.22356876  1
  C  C163  1  0.73392453  0.19858989  0.27643124  1
  C  C164  1  0.73429747  0.36298053  0.36024843  1
  C  C165  1  0.73429747  0.86298053  0.13975157  1
  C  C166  1  0.74456005  0.49053397  0.27204313  1
  C  C167  1  0.74456005  0.99053397  0.22795687  1
  C  C168  1  0.75543995  0.99053397  0.72795687  1
  C  C169  1  0.75543995  0.49053397  0.77204313  1
  C  C170  1  0.76570253  0.36298053  0.86024843  1
  C  C171  1  0.76570253  0.86298053  0.63975157  1
  C  C172  1  0.76607547  0.69858989  0.72356876  1
  C  C173  1  0.76607547  0.19858989  0.77643124  1
  C  C174  1  0.77397446  0.23400644  0.19189373  1
  C  C175  1  0.77397446  0.73400644  0.30810727  1
  C  C176  1  0.78083683  0.38875842  0.11629545  1
  C  C177  1  0.78083683  0.88875842  0.38370455  1
  C  C178  1  0.80013317  0.43641375  0.98380035  1
  C  C179  1  0.80013317  0.93641375  0.51619965  1
  C  C180  1  0.80858914  0.14206969  0.06096716  1
  C  C181  1  0.80858914  0.64206969  0.43903284  1
  C  C182  1  0.84511936  0.62638434  0.52244000  1
  C  C183  1  0.84511936  0.12638434  0.97756000  1
  C  C184  1  0.91360965  0.18730123  0.50960898  1
  C  C185  1  0.91360965  0.68730123  0.99039102  1
  C  C186  1  0.94166102  0.16862487  0.62112631  1
  C  C187  1  0.94166102  0.66862487  0.87887369  1
  C  C188  1  0.94272066  0.54591046  0.36298317  1
  C  C189  1  0.94272066  0.04591046  0.13701683  1
  C  C190  1  0.94373936  0.03038637  0.33314056  1
  C  C191  1  0.94373936  0.53038637  0.16685944  1
  C  C192  1  0.95534110  0.33393013  0.41434237  1
  C  C193  1  0.95534110  0.83393013  0.08565763  1
  C  C194  1  0.96908620  0.05010501  0.42015046  1
  C  C195  1  0.96908620  0.55010501  0.07984954  1
  C  C196  1  0.98455348  0.13267235  0.24150204  1
  C  C197  1  0.98455348  0.63267235  0.25849796  1
  C  C198  1  0.99483981  0.17779097  0.82895865  1
  C  C199  1  0.99483981  0.67779097  0.67104135  1
