# generated using pymatgen
data_Cu15(Ni5C2)2
_symmetry_space_group_name_H-M   'P 1'
_cell_length_a   9.30863000
_cell_length_b   12.34119600
_cell_length_c   20.47145400
_cell_angle_alpha   90.00000000
_cell_angle_beta   90.00000000
_cell_angle_gamma   90.00000000
_symmetry_Int_Tables_number   1
_chemical_formula_structural   Cu15(Ni5C2)2
_chemical_formula_sum   'Cu60 Ni40 C16'
_cell_volume   2351.75300625
_cell_formula_units_Z   4
loop_
 _symmetry_equiv_pos_site_id
 _symmetry_equiv_pos_as_xyz
  1  'x, y, z'
loop_
 _atom_site_type_symbol
 _atom_site_label
 _atom_site_symmetry_multiplicity
 _atom_site_fract_x
 _atom_site_fract_y
 _atom_site_fract_z
 _atom_site_occupancy
  C  C0  1  0.75226300  0.99577700  0.26261800  1
  C  C1  1  0.74773700  0.49577700  0.23738200  1
  C  C2  1  0.74773700  0.00422300  0.76261800  1
  C  C3  1  0.75226300  0.50422300  0.73738200  1
  C  C4  1  0.24773700  0.00422300  0.73738200  1
  C  C5  1  0.25226300  0.50422300  0.76261800  1
  C  C6  1  0.25226300  0.99577700  0.23738200  1
  C  C7  1  0.24773700  0.49577700  0.26261800  1
  C  C8  1  0.87867900  0.71666300  0.39427600  1
  C  C9  1  0.62132100  0.21666300  0.10572400  1
  C  C10  1  0.62132100  0.28333700  0.89427600  1
  C  C11  1  0.87867900  0.78333700  0.60572400  1
  C  C12  1  0.12132100  0.28333700  0.60572400  1
  C  C13  1  0.37867900  0.78333700  0.89427600  1
  C  C14  1  0.37867900  0.71666300  0.10572400  1
  C  C15  1  0.12132100  0.21666300  0.39427600  1
  Ni  Ni16  1  0.95194900  0.51090500  0.09149800  1
  Ni  Ni17  1  0.54805100  0.01090500  0.40850200  1
  Ni  Ni18  1  0.54805100  0.48909500  0.59149800  1
  Ni  Ni19  1  0.95194900  0.98909500  0.90850200  1
  Ni  Ni20  1  0.04805100  0.48909500  0.90850200  1
  Ni  Ni21  1  0.45194900  0.98909500  0.59149800  1
  Ni  Ni22  1  0.45194900  0.51090500  0.40850200  1
  Ni  Ni23  1  0.04805100  0.01090500  0.09149800  1
  Ni  Ni24  1  0.97596400  0.67218000  0.07787100  1
  Ni  Ni25  1  0.52403600  0.17218000  0.42212900  1
  Ni  Ni26  1  0.52403600  0.32782000  0.57787100  1
  Ni  Ni27  1  0.97596400  0.82782000  0.92212900  1
  Ni  Ni28  1  0.02403600  0.32782000  0.92212900  1
  Ni  Ni29  1  0.47596400  0.82782000  0.57787100  1
  Ni  Ni30  1  0.47596400  0.67218000  0.42212900  1
  Ni  Ni31  1  0.02403600  0.17218000  0.07787100  1
  Ni  Ni32  1  0.86939500  0.75171600  0.15073400  1
  Ni  Ni33  1  0.63060500  0.25171600  0.34926600  1
  Ni  Ni34  1  0.63060500  0.24828400  0.65073400  1
  Ni  Ni35  1  0.86939500  0.74828400  0.84926600  1
  Ni  Ni36  1  0.13060500  0.24828400  0.84926600  1
  Ni  Ni37  1  0.36939500  0.74828400  0.65073400  1
  Ni  Ni38  1  0.36939500  0.75171600  0.34926600  1
  Ni  Ni39  1  0.13060500  0.25171600  0.15073400  1
  Ni  Ni40  1  0.73598500  0.48159300  0.04977800  1
  Ni  Ni41  1  0.76401500  0.98159300  0.45022200  1
  Ni  Ni42  1  0.76401500  0.51840700  0.54977800  1
  Ni  Ni43  1  0.73598500  0.01840700  0.95022200  1
  Ni  Ni44  1  0.26401500  0.51840700  0.95022200  1
  Ni  Ni45  1  0.23598500  0.01840700  0.54977800  1
  Ni  Ni46  1  0.23598500  0.48159300  0.45022200  1
  Ni  Ni47  1  0.26401500  0.98159300  0.04977800  1
  Ni  Ni48  1  0.02700700  0.74895200  0.22889600  1
  Ni  Ni49  1  0.47299300  0.24895200  0.27110400  1
  Ni  Ni50  1  0.47299300  0.25104800  0.72889600  1
  Ni  Ni51  1  0.02700700  0.75104800  0.77110400  1
  Ni  Ni52  1  0.97299300  0.25104800  0.77110400  1
  Ni  Ni53  1  0.52700700  0.75104800  0.72889600  1
  Ni  Ni54  1  0.52700700  0.74895200  0.27110400  1
  Ni  Ni55  1  0.97299300  0.24895200  0.22889600  1
  Cu  Cu56  1  0.71806300  0.56258900  0.99826000  1
  Cu  Cu57  1  0.78193700  0.06258900  0.50174000  1
  Cu  Cu58  1  0.78193700  0.43741100  0.49826000  1
  Cu  Cu59  1  0.71806300  0.93741100  0.00174000  1
  Cu  Cu60  1  0.28193700  0.43741100  0.00174000  1
  Cu  Cu61  1  0.21806300  0.93741100  0.49826000  1
  Cu  Cu62  1  0.21806300  0.56258900  0.50174000  1
  Cu  Cu63  1  0.28193700  0.06258900  0.99826000  1
  Cu  Cu64  1  0.64024400  0.49259000  0.10647300  1
  Cu  Cu65  1  0.85975600  0.99259000  0.39352700  1
  Cu  Cu66  1  0.85975600  0.50741000  0.60647300  1
  Cu  Cu67  1  0.64024400  0.00741000  0.89352700  1
  Cu  Cu68  1  0.35975600  0.50741000  0.89352700  1
  Cu  Cu69  1  0.14024400  0.00741000  0.60647300  1
  Cu  Cu70  1  0.14024400  0.49259000  0.39352700  1
  Cu  Cu71  1  0.35975600  0.99259000  0.10647300  1
  Cu  Cu72  1  0.75508700  0.36986400  0.02683900  1
  Cu  Cu73  1  0.74491300  0.86986400  0.47316100  1
  Cu  Cu74  1  0.74491300  0.63013600  0.52683900  1
  Cu  Cu75  1  0.75508700  0.13013600  0.97316100  1
  Cu  Cu76  1  0.24491300  0.63013600  0.97316100  1
  Cu  Cu77  1  0.25508700  0.13013600  0.52683900  1
  Cu  Cu78  1  0.25508700  0.36986400  0.47316100  1
  Cu  Cu79  1  0.24491300  0.86986400  0.02683900  1
  Cu  Cu80  1  0.16712700  0.76727400  0.19796800  1
  Cu  Cu81  1  0.33287300  0.26727400  0.30203200  1
  Cu  Cu82  1  0.33287300  0.23272600  0.69796800  1
  Cu  Cu83  1  0.16712700  0.73272600  0.80203200  1
  Cu  Cu84  1  0.83287300  0.23272600  0.80203200  1
  Cu  Cu85  1  0.66712700  0.73272600  0.69796800  1
  Cu  Cu86  1  0.66712700  0.76727400  0.30203200  1
  Cu  Cu87  1  0.83287300  0.26727400  0.19796800  1
  Cu  Cu88  1  0.01238900  0.64139000  0.25962800  1
  Cu  Cu89  1  0.48761100  0.14139000  0.24037200  1
  Cu  Cu90  1  0.48761100  0.35861000  0.75962800  1
  Cu  Cu91  1  0.01238900  0.85861000  0.74037200  1
  Cu  Cu92  1  0.98761100  0.35861000  0.74037200  1
  Cu  Cu93  1  0.51238900  0.85861000  0.75962800  1
  Cu  Cu94  1  0.51238900  0.64139000  0.24037200  1
  Cu  Cu95  1  0.98761100  0.14139000  0.25962800  1
  Cu  Cu96  1  0.97841200  0.83870300  0.27022900  1
  Cu  Cu97  1  0.52158800  0.33870300  0.22977100  1
  Cu  Cu98  1  0.52158800  0.16129700  0.77022900  1
  Cu  Cu99  1  0.97841200  0.66129700  0.72977100  1
  Cu  Cu100  1  0.02158800  0.16129700  0.72977100  1
  Cu  Cu101  1  0.47841200  0.66129700  0.77022900  1
  Cu  Cu102  1  0.47841200  0.83870300  0.22977100  1
  Cu  Cu103  1  0.02158800  0.33870300  0.27022900  1
  Cu  Cu104  1  0.66249400  0.99576500  0.13056700  1
  Cu  Cu105  1  0.83750600  0.49576500  0.36943300  1
  Cu  Cu106  1  0.83750600  0.00423500  0.63056700  1
  Cu  Cu107  1  0.66249400  0.50423500  0.86943300  1
  Cu  Cu108  1  0.33750600  0.00423500  0.86943300  1
  Cu  Cu109  1  0.16249400  0.50423500  0.63056700  1
  Cu  Cu110  1  0.16249400  0.99576500  0.36943300  1
  Cu  Cu111  1  0.33750600  0.49576500  0.13056700  1
  Cu  Cu112  1  0.57069100  0.75000000  0.00000000  1
  Cu  Cu113  1  0.92930900  0.25000000  0.50000000  1
  Cu  Cu114  1  0.42930900  0.25000000  0.00000000  1
  Cu  Cu115  1  0.07069100  0.75000000  0.50000000  1
