# generated using pymatgen
data_Cu12NiC10
_symmetry_space_group_name_H-M   'P 1'
_cell_length_a   8.09501311
_cell_length_b   8.09501311
_cell_length_c   8.09501311
_cell_angle_alpha   109.47122063
_cell_angle_beta   109.47122063
_cell_angle_gamma   109.47122063
_symmetry_Int_Tables_number   1
_chemical_formula_structural   Cu12NiC10
_chemical_formula_sum   'Cu12 Ni1 C10'
_cell_volume   408.34832554
_cell_formula_units_Z   1
loop_
 _symmetry_equiv_pos_site_id
 _symmetry_equiv_pos_as_xyz
  1  'x, y, z'
loop_
 _atom_site_type_symbol
 _atom_site_label
 _atom_site_symmetry_multiplicity
 _atom_site_fract_x
 _atom_site_fract_y
 _atom_site_fract_z
 _atom_site_occupancy
  C  C0  1  0.00000000  0.36583200  0.00000000  1
  C  C1  1  0.36583200  0.00000000  0.00000000  1
  C  C2  1  0.63416800  0.63416800  0.63416800  1
  C  C3  1  0.00000000  0.00000000  0.36583200  1
  C  C4  1  0.25000000  0.50000000  0.75000000  1
  C  C5  1  0.75000000  0.50000000  0.25000000  1
  C  C6  1  0.25000000  0.75000000  0.50000000  1
  C  C7  1  0.75000000  0.25000000  0.50000000  1
  C  C8  1  0.50000000  0.25000000  0.75000000  1
  C  C9  1  0.50000000  0.75000000  0.25000000  1
  Ni  Ni10  1  0.00000000  0.00000000  0.00000000  1
  Cu  Cu11  1  0.00000000  0.59589800  0.29350100  1
  Cu  Cu12  1  0.40410200  0.40410200  0.69760300  1
  Cu  Cu13  1  0.00000000  0.29350100  0.59589800  1
  Cu  Cu14  1  0.29350100  0.00000000  0.59589800  1
  Cu  Cu15  1  0.70649900  0.30239700  0.70649900  1
  Cu  Cu16  1  0.30239700  0.70649900  0.70649900  1
  Cu  Cu17  1  0.70649900  0.70649900  0.30239700  1
  Cu  Cu18  1  0.59589800  0.29350100  0.00000000  1
  Cu  Cu19  1  0.29350100  0.59589800  0.00000000  1
  Cu  Cu20  1  0.40410200  0.69760300  0.40410200  1
  Cu  Cu21  1  0.59589800  0.00000000  0.29350100  1
  Cu  Cu22  1  0.69760300  0.40410200  0.40410200  1
