# generated using pymatgen
data_CuNiC2
_symmetry_space_group_name_H-M   'P 1'
_cell_length_a   6.87248232
_cell_length_b   6.87248232
_cell_length_c   9.56957275
_cell_angle_alpha   50.67569201
_cell_angle_beta   50.67569201
_cell_angle_gamma   30.89226626
_symmetry_Int_Tables_number   1
_chemical_formula_structural   CuNiC2
_chemical_formula_sum   'Cu2 Ni2 C4'
_cell_volume   174.85440621
_cell_formula_units_Z   2
loop_
 _symmetry_equiv_pos_site_id
 _symmetry_equiv_pos_as_xyz
  1  'x, y, z'
loop_
 _atom_site_type_symbol
 _atom_site_label
 _atom_site_symmetry_multiplicity
 _atom_site_fract_x
 _atom_site_fract_y
 _atom_site_fract_z
 _atom_site_occupancy
  C  C0  1  0.20663700  0.20663700  0.88184900  1
  C  C1  1  0.79336300  0.79336300  0.11815100  1
  C  C2  1  0.55978300  0.55978300  0.63947200  1
  C  C3  1  0.44021700  0.44021700  0.36052800  1
  Ni  Ni4  1  0.92451500  0.92451500  0.60809700  1
  Ni  Ni5  1  0.07548500  0.07548500  0.39190300  1
  Cu  Cu6  1  0.12637800  0.12637800  0.19816600  1
  Cu  Cu7  1  0.87362200  0.87362200  0.80183400  1
