# generated using pymatgen
data_Cu2NiC5
_symmetry_space_group_name_H-M   'P 1'
_cell_length_a   9.06637300
_cell_length_b   11.09440900
_cell_length_c   12.52569501
_cell_angle_alpha   90.00000000
_cell_angle_beta   99.60103242
_cell_angle_gamma   90.00000000
_symmetry_Int_Tables_number   1
_chemical_formula_structural   Cu2NiC5
_chemical_formula_sum   'Cu24 Ni12 C60'
_cell_volume   1242.26266542
_cell_formula_units_Z   12
loop_
 _symmetry_equiv_pos_site_id
 _symmetry_equiv_pos_as_xyz
  1  'x, y, z'
loop_
 _atom_site_type_symbol
 _atom_site_label
 _atom_site_symmetry_multiplicity
 _atom_site_fract_x
 _atom_site_fract_y
 _atom_site_fract_z
 _atom_site_occupancy
  C  C0  1  0.36162400  0.54953800  0.74209800  1
  C  C1  1  0.63837600  0.04953800  0.75790200  1
  C  C2  1  0.63837600  0.45046200  0.25790200  1
  C  C3  1  0.36162400  0.95046200  0.24209800  1
  C  C4  1  0.11806400  0.51392000  0.81972600  1
  C  C5  1  0.88193600  0.01392000  0.68027400  1
  C  C6  1  0.88193600  0.48608000  0.18027400  1
  C  C7  1  0.11806400  0.98608000  0.31972600  1
  Ni  Ni8  1  0.18360100  0.40501800  0.70119900  1
  Ni  Ni9  1  0.81639900  0.90501800  0.79880100  1
  Ni  Ni10  1  0.81639900  0.59498200  0.29880100  1
  Ni  Ni11  1  0.18360100  0.09498200  0.20119900  1
  Ni  Ni12  1  0.02780500  0.49970800  0.65810800  1
  Ni  Ni13  1  0.97219500  0.99970800  0.84189200  1
  Ni  Ni14  1  0.97219500  0.50029200  0.34189200  1
  Ni  Ni15  1  0.02780500  0.00029200  0.15810800  1
  Ni  Ni16  1  0.13562400  0.63296800  0.69412800  1
  Ni  Ni17  1  0.86437600  0.13296800  0.80587200  1
  Ni  Ni18  1  0.86437600  0.36703200  0.30587200  1
  Ni  Ni19  1  0.13562400  0.86703200  0.19412800  1
  C  C20  1  0.30806100  0.43497100  0.66314200  1
  C  C21  1  0.69193900  0.93497100  0.83685800  1
  C  C22  1  0.69193900  0.56502900  0.33685800  1
  C  C23  1  0.30806100  0.06502900  0.16314200  1
  C  C24  1  0.26321900  0.63712100  0.65323200  1
  C  C25  1  0.73678100  0.13712100  0.84676800  1
  C  C26  1  0.73678100  0.36287900  0.34676800  1
  C  C27  1  0.26321900  0.86287900  0.15323200  1
  C  C28  1  0.10082300  0.42233100  0.60412700  1
  C  C29  1  0.89917700  0.92233100  0.89587300  1
  C  C30  1  0.89917700  0.57766900  0.39587300  1
  C  C31  1  0.10082300  0.07766900  0.10412700  1
  C  C32  1  0.05858700  0.59486600  0.60018400  1
  C  C33  1  0.94141300  0.09486600  0.89981600  1
  C  C34  1  0.94141300  0.40513400  0.39981600  1
  C  C35  1  0.05858700  0.90513400  0.10018400  1
  C  C36  1  0.18793500  0.29719300  0.70582200  1
  C  C37  1  0.81206500  0.79719300  0.79417800  1
  C  C38  1  0.81206500  0.70280700  0.29417800  1
  C  C39  1  0.18793500  0.20280700  0.20582200  1
  C  C40  1  0.89869600  0.47779600  0.62526000  1
  C  C41  1  0.10130400  0.97779600  0.87474000  1
  C  C42  1  0.10130400  0.52220400  0.37474000  1
  C  C43  1  0.89869600  0.02220400  0.12526000  1
  C  C44  1  0.09757200  0.73607500  0.69500300  1
  C  C45  1  0.90242800  0.23607500  0.80499700  1
  C  C46  1  0.90242800  0.26392500  0.30499700  1
  C  C47  1  0.09757200  0.76392500  0.19500300  1
  Cu  Cu48  1  0.41993900  0.67891600  0.82193600  1
  Cu  Cu49  1  0.58006100  0.17891600  0.67806400  1
  Cu  Cu50  1  0.58006100  0.32108400  0.17806400  1
  Cu  Cu51  1  0.41993900  0.82108400  0.32193600  1
  Cu  Cu52  1  0.45918300  0.44945500  0.83923500  1
  Cu  Cu53  1  0.54081700  0.94945500  0.66076500  1
  Cu  Cu54  1  0.54081700  0.55054500  0.16076500  1
  Cu  Cu55  1  0.45918300  0.05054500  0.33923500  1
  Cu  Cu56  1  0.50084200  0.56377500  0.65780800  1
  Cu  Cu57  1  0.49915800  0.06377500  0.84219200  1
  Cu  Cu58  1  0.49915800  0.43622500  0.34219200  1
  Cu  Cu59  1  0.50084200  0.93622500  0.15780800  1
  Cu  Cu60  1  0.14376600  0.64115000  0.90722700  1
  Cu  Cu61  1  0.85623400  0.14115000  0.59277300  1
  Cu  Cu62  1  0.85623400  0.35885000  0.09277300  1
  Cu  Cu63  1  0.14376600  0.85885000  0.40722700  1
  Cu  Cu64  1  0.92852100  0.50153100  0.82836200  1
  Cu  Cu65  1  0.07147900  0.00153100  0.67163800  1
  Cu  Cu66  1  0.07147900  0.49846900  0.17163800  1
  Cu  Cu67  1  0.92852100  0.99846900  0.32836200  1
  Cu  Cu68  1  0.17354200  0.39080800  0.90905500  1
  Cu  Cu69  1  0.82645800  0.89080800  0.59094500  1
  Cu  Cu70  1  0.82645800  0.60919200  0.09094500  1
  Cu  Cu71  1  0.17354200  0.10919200  0.40905500  1
  C  C72  1  0.45859800  0.76461900  0.87191100  1
  C  C73  1  0.54140200  0.26461900  0.62808900  1
  C  C74  1  0.54140200  0.23538100  0.12808900  1
  C  C75  1  0.45859800  0.73538100  0.37191100  1
  C  C76  1  0.52269800  0.38210700  0.90150900  1
  C  C77  1  0.47730200  0.88210700  0.59849100  1
  C  C78  1  0.47730200  0.61789300  0.09849100  1
  C  C79  1  0.52269800  0.11789300  0.40150900  1
  C  C80  1  0.59023600  0.57377000  0.60205500  1
  C  C81  1  0.40976400  0.07377000  0.89794500  1
  C  C82  1  0.40976400  0.42623000  0.39794500  1
  C  C83  1  0.59023600  0.92623000  0.10205500  1
  C  C84  1  0.15616500  0.72729000  0.96127300  1
  C  C85  1  0.84383500  0.22729000  0.53872700  1
  C  C86  1  0.84383500  0.27271000  0.03872700  1
  C  C87  1  0.15616500  0.77271000  0.46127300  1
  C  C88  1  0.80152200  0.49485900  0.83365100  1
  C  C89  1  0.19847800  0.99485900  0.66634900  1
  C  C90  1  0.19847800  0.50514100  0.16634900  1
  C  C91  1  0.80152200  0.00514100  0.33365100  1
  C  C92  1  0.20572100  0.30762400  0.96483400  1
  C  C93  1  0.79427900  0.80762400  0.53516600  1
  C  C94  1  0.79427900  0.69237600  0.03516600  1
  C  C95  1  0.20572100  0.19237600  0.46483400  1
