# generated using pymatgen
data_Cu2Ni4C23
_symmetry_space_group_name_H-M   'P 1'
_cell_length_a   10.03455215
_cell_length_b   10.03455215
_cell_length_c   8.24873980
_cell_angle_alpha   88.76449094
_cell_angle_beta   88.76449094
_cell_angle_gamma   123.75075285
_symmetry_Int_Tables_number   1
_chemical_formula_structural   Cu2Ni4C23
_chemical_formula_sum   'Cu4 Ni8 C46'
_cell_volume   689.87650773
_cell_formula_units_Z   2
loop_
 _symmetry_equiv_pos_site_id
 _symmetry_equiv_pos_as_xyz
  1  'x, y, z'
loop_
 _atom_site_type_symbol
 _atom_site_label
 _atom_site_symmetry_multiplicity
 _atom_site_fract_x
 _atom_site_fract_y
 _atom_site_fract_z
 _atom_site_occupancy
  C  C0  1  0.35304900  0.18309900  0.57598100  1
  C  C1  1  0.81464700  0.06916700  0.16365500  1
  C  C2  1  0.69786800  0.31966500  0.97221000  1
  C  C3  1  0.83846500  0.24420200  0.62594700  1
  C  C4  1  0.71053800  0.47017300  0.39929000  1
  C  C5  1  0.18309900  0.35304900  0.07598100  1
  C  C6  1  0.88194200  0.71647200  0.04001700  1
  C  C7  1  0.06916700  0.81464700  0.66365500  1
  C  C8  1  0.31966500  0.69786800  0.47221000  1
  C  C9  1  0.24420200  0.83846500  0.12594700  1
  C  C10  1  0.47017300  0.71053800  0.89929000  1
  C  C11  1  0.71647200  0.88194200  0.54001700  1
  Ni  Ni12  1  0.07967100  0.01615200  0.30971600  1
  Ni  Ni13  1  0.56679000  0.08716700  0.32730200  1
  Ni  Ni14  1  0.01615200  0.07967100  0.80971600  1
  Ni  Ni15  1  0.67250300  0.57140900  0.70885100  1
  Ni  Ni16  1  0.97515900  0.46520900  0.27500700  1
  Ni  Ni17  1  0.08716700  0.56679000  0.82730200  1
  Ni  Ni18  1  0.57140900  0.67250300  0.20885100  1
  Ni  Ni19  1  0.46520900  0.97515900  0.77500700  1
  Cu  Cu20  1  0.38171400  0.21715400  0.11877600  1
  Cu  Cu21  1  0.37161400  0.22229200  0.92914300  1
  Cu  Cu22  1  0.22229200  0.37161400  0.42914300  1
  Cu  Cu23  1  0.21715400  0.38171400  0.61877600  1
  C  C24  1  0.20253200  0.19392700  0.25115800  1
  C  C25  1  0.43159600  0.21306300  0.01635000  1
  C  C26  1  0.53525200  0.21271600  0.39130100  1
  C  C27  1  0.64613400  0.13870100  0.15328900  1
  C  C28  1  0.69022700  0.07538400  0.42924400  1
  C  C29  1  0.62306200  0.14480300  0.77627400  1
  C  C30  1  0.54871700  0.41434100  0.62488900  1
  C  C31  1  0.89730200  0.07380000  0.68464900  1
  C  C32  1  0.99057400  0.14008300  0.97243500  1
  C  C33  1  0.68201200  0.61074600  0.22729900  1
  C  C34  1  0.71335900  0.53473100  0.87733400  1
  C  C35  1  0.99167200  0.33052400  0.21273000  1
  C  C36  1  0.89314200  0.42084300  0.44767200  1
  C  C37  1  0.86017400  0.48879600  0.17059500  1
  C  C38  1  0.92200800  0.40409900  0.82655700  1
  C  C39  1  0.19392700  0.20253200  0.75115800  1
  C  C40  1  0.82181900  0.65842900  0.58775600  1
  C  C41  1  0.21306300  0.43159600  0.51635000  1
  C  C42  1  0.14480300  0.62306200  0.27627400  1
  C  C43  1  0.21271600  0.53525200  0.89130100  1
  C  C44  1  0.13870100  0.64613400  0.65328900  1
  C  C45  1  0.07538400  0.69022700  0.92924400  1
  C  C46  1  0.97875900  0.90809100  0.83671000  1
  C  C47  1  0.41434100  0.54871700  0.12488900  1
  C  C48  1  0.07380000  0.89730200  0.18464900  1
  C  C49  1  0.14008300  0.99057400  0.47243500  1
  C  C50  1  0.53473100  0.71335900  0.37733400  1
  C  C51  1  0.61074600  0.68201200  0.72729900  1
  C  C52  1  0.40409900  0.92200800  0.32655700  1
  C  C53  1  0.33052400  0.99167200  0.71273000  1
  C  C54  1  0.42084300  0.89314200  0.94767200  1
  C  C55  1  0.48879600  0.86017400  0.67059500  1
  C  C56  1  0.65842900  0.82181900  0.08775600  1
  C  C57  1  0.90809100  0.97875900  0.33671000  1
