# generated using pymatgen
data_Cu3Ni3C10
_symmetry_space_group_name_H-M   'P 1'
_cell_length_a   6.70109201
_cell_length_b   7.40834780
_cell_length_c   10.99790374
_cell_angle_alpha   95.38223085
_cell_angle_beta   90.00397638
_cell_angle_gamma   90.00565104
_symmetry_Int_Tables_number   1
_chemical_formula_structural   Cu3Ni3C10
_chemical_formula_sum   'Cu6 Ni6 C20'
_cell_volume   543.57298167
_cell_formula_units_Z   2
loop_
 _symmetry_equiv_pos_site_id
 _symmetry_equiv_pos_as_xyz
  1  'x, y, z'
loop_
 _atom_site_type_symbol
 _atom_site_label
 _atom_site_symmetry_multiplicity
 _atom_site_fract_x
 _atom_site_fract_y
 _atom_site_fract_z
 _atom_site_occupancy
  C  C0  1  0.98594700  0.50610800  0.04529400  1
  C  C1  1  0.01400300  0.00614100  0.54528400  1
  Ni  Ni2  1  0.79277900  0.28890900  0.78048800  1
  Ni  Ni3  1  0.20711500  0.78893800  0.28053200  1
  Ni  Ni4  1  0.88399400  0.23972800  0.30313800  1
  Ni  Ni5  1  0.11599200  0.73976300  0.80311200  1
  Ni  Ni6  1  0.47846600  0.11654200  0.48991700  1
  Ni  Ni7  1  0.52155700  0.61655800  0.98992400  1
  Cu  Cu8  1  0.14128200  0.50068100  0.50772900  1
  Cu  Cu9  1  0.85893100  0.00077800  0.00769400  1
  Cu  Cu10  1  0.37020600  0.30717200  0.19361200  1
  Cu  Cu11  1  0.62972400  0.80716700  0.69363200  1
  Cu  Cu12  1  0.29058100  0.21939200  0.79292300  1
  Cu  Cu13  1  0.70936100  0.71937100  0.29288400  1
  C  C14  1  0.98941500  0.21396600  0.67139300  1
  C  C15  1  0.01059000  0.71393300  0.17138000  1
  C  C16  1  0.68310100  0.07639800  0.82114900  1
  C  C17  1  0.31686900  0.57640500  0.32116300  1
  C  C18  1  0.96475400  0.31161900  0.90981800  1
  C  C19  1  0.03522400  0.81166100  0.40983100  1
  C  C20  1  0.03137600  0.28302500  0.16970600  1
  C  C21  1  0.96856800  0.78304100  0.66972500  1
  C  C22  1  0.83566300  0.46368300  0.37140500  1
  C  C23  1  0.16437700  0.96387800  0.87140100  1
  C  C24  1  0.08443600  0.19874400  0.40635900  1
  C  C25  1  0.91567700  0.69866000  0.90635900  1
  C  C26  1  0.30758700  0.99479700  0.58688800  1
  C  C27  1  0.69243800  0.49480700  0.08686700  1
  C  C28  1  0.29080800  0.48946200  0.03784200  1
  C  C29  1  0.70918800  0.98949100  0.53785600  1
  C  C30  1  0.46988400  0.32389400  0.57873000  1
  C  C31  1  0.53010700  0.82389200  0.07876300  1
