# generated using pymatgen
data_Cu8NiC6
_symmetry_space_group_name_H-M   'P 1'
_cell_length_a   5.38110757
_cell_length_b   5.38110757
_cell_length_c   14.35168058
_cell_angle_alpha   88.88036741
_cell_angle_beta   88.88036741
_cell_angle_gamma   58.67034861
_symmetry_Int_Tables_number   1
_chemical_formula_structural   Cu8NiC6
_chemical_formula_sum   'Cu16 Ni2 C12'
_cell_volume   354.88806599
_cell_formula_units_Z   2
loop_
 _symmetry_equiv_pos_site_id
 _symmetry_equiv_pos_as_xyz
  1  'x, y, z'
loop_
 _atom_site_type_symbol
 _atom_site_label
 _atom_site_symmetry_multiplicity
 _atom_site_fract_x
 _atom_site_fract_y
 _atom_site_fract_z
 _atom_site_occupancy
  C  C0  1  0.00003500  0.99796100  0.84634700  1
  C  C1  1  0.99796100  0.00003500  0.34634700  1
  C  C2  1  0.98865100  0.02072400  0.63968100  1
  C  C3  1  0.02072400  0.98865100  0.13968100  1
  C  C4  1  0.69061100  0.65284000  0.68245500  1
  C  C5  1  0.65226700  0.66979300  0.98507900  1
  C  C6  1  0.65284000  0.69061100  0.18245500  1
  C  C7  1  0.66979300  0.65226700  0.48507900  1
  C  C8  1  0.33465300  0.32696100  0.81432800  1
  C  C9  1  0.32696100  0.33465300  0.31432800  1
  C  C10  1  0.33988100  0.30793500  0.02619800  1
  C  C11  1  0.30793500  0.33988100  0.52619800  1
  Ni  Ni12  1  0.38133300  0.95334700  0.08183100  1
  Ni  Ni13  1  0.95334700  0.38133300  0.58183100  1
  Cu  Cu14  1  0.29675900  0.70394000  0.25233600  1
  Cu  Cu15  1  0.34216200  0.68266900  0.58430900  1
  Cu  Cu16  1  0.70394000  0.29675900  0.75233600  1
  Cu  Cu17  1  0.68266900  0.34216200  0.08430900  1
  Cu  Cu18  1  0.97856300  0.33619000  0.25565800  1
  Cu  Cu19  1  0.67070400  0.98616600  0.58537200  1
  Cu  Cu20  1  0.00818000  0.34472200  0.91418800  1
  Cu  Cu21  1  0.33619000  0.97856300  0.75565800  1
  Cu  Cu22  1  0.98616600  0.67070400  0.08537200  1
  Cu  Cu23  1  0.34472200  0.00818000  0.41418800  1
  Cu  Cu24  1  0.01140800  0.69783400  0.75351500  1
  Cu  Cu25  1  0.02462300  0.64668500  0.41120900  1
  Cu  Cu26  1  0.32596900  0.61989400  0.91755700  1
  Cu  Cu27  1  0.64668500  0.02462300  0.91120900  1
  Cu  Cu28  1  0.69783400  0.01140800  0.25351500  1
  Cu  Cu29  1  0.61989400  0.32596900  0.41755700  1
