# generated using pymatgen
data_CuNi4C29
_symmetry_space_group_name_H-M   'P 1'
_cell_length_a   10.71743101
_cell_length_b   10.71743101
_cell_length_c   10.71743101
_cell_angle_alpha   142.56960702
_cell_angle_beta   97.32732972
_cell_angle_gamma   94.49487695
_symmetry_Int_Tables_number   1
_chemical_formula_structural   CuNi4C29
_chemical_formula_sum   'Cu2 Ni8 C58'
_cell_volume   708.39420499
_cell_formula_units_Z   2
loop_
 _symmetry_equiv_pos_site_id
 _symmetry_equiv_pos_as_xyz
  1  'x, y, z'
loop_
 _atom_site_type_symbol
 _atom_site_label
 _atom_site_symmetry_multiplicity
 _atom_site_fract_x
 _atom_site_fract_y
 _atom_site_fract_z
 _atom_site_occupancy
  C  C0  1  0.02338800  0.24424600  0.75826600  1
  C  C1  1  0.02338800  0.76512200  0.27914200  1
  C  C2  1  0.75751100  0.87907400  0.37843700  1
  C  C3  1  0.99895900  0.61724000  0.88171900  1
  C  C4  1  0.24058300  0.87624700  0.86433600  1
  C  C5  1  0.50412000  0.00412000  0.50000000  1
  C  C6  1  0.27168800  0.27168800  0.00000000  1
  C  C7  1  0.74789200  0.74789200  0.00000000  1
  C  C8  1  0.99023700  0.99023700  0.00000000  1
  C  C9  1  0.27168800  0.77168800  0.50000000  1
  C  C10  1  0.50412000  0.50412000  0.00000000  1
  C  C11  1  0.99023700  0.49023700  0.50000000  1
  C  C12  1  0.74789200  0.24789200  0.50000000  1
  C  C13  1  0.01191100  0.37624700  0.13566400  1
  C  C14  1  0.73552200  0.11724000  0.11828100  1
  C  C15  1  0.50063800  0.37907400  0.62156300  1
  C  C16  1  0.48598000  0.74424600  0.72085800  1
  C  C17  1  0.48598000  0.26512200  0.24173400  1
  C  C18  1  0.24545900  0.99815500  0.24074800  1
  C  C19  1  0.75740700  0.49815500  0.25269600  1
  C  C20  1  0.24545900  0.50471100  0.74730400  1
  C  C21  1  0.75740700  0.00471100  0.75925200  1
  Ni  Ni22  1  0.97058900  0.10878100  0.36180800  1
  Ni  Ni23  1  0.75662200  0.39060800  0.86601400  1
  Ni  Ni24  1  0.24847200  0.38934400  0.35912800  1
  Ni  Ni25  1  0.48505200  0.11484100  0.87021100  1
  Ni  Ni26  1  0.24463000  0.61484100  0.12978900  1
  Ni  Ni27  1  0.03021500  0.88934400  0.64087200  1
  Ni  Ni28  1  0.74697300  0.60878100  0.63819200  1
  Ni  Ni29  1  0.52459300  0.89060800  0.13398600  1
  Cu  Cu30  1  0.58372400  0.68936200  0.39436200  1
  Cu  Cu31  1  0.29499900  0.18936200  0.60563800  1
  C  C32  1  0.16211000  0.51040200  0.15170800  1
  C  C33  1  0.15401600  0.99265900  0.66135800  1
  C  C34  1  0.20181500  0.44576400  0.88327600  1
  C  C35  1  0.20181500  0.81853900  0.25605100  1
  C  C36  1  0.94943300  0.68456400  0.39381700  1
  C  C37  1  0.94943300  0.05561600  0.76486900  1
  C  C38  1  0.20539600  0.75767100  0.94772500  1
  C  C39  1  0.67862000  0.74297900  0.43564000  1
  C  C40  1  0.94268300  0.01985200  0.42283100  1
  C  C41  1  0.90535000  0.48190300  0.92344700  1
  C  C42  1  0.72279700  0.52462500  0.07695500  1
  C  C43  1  0.04675400  0.35417400  0.56887000  1
  C  C44  1  0.04675400  0.97788500  0.19258000  1
  C  C45  1  0.72279700  0.14584100  0.69817200  1
  C  C46  1  0.45172700  0.17312900  0.77859800  1
  C  C47  1  0.09641600  0.32709400  0.26932200  1
  C  C48  1  0.84346900  0.08863800  0.25483000  1
  C  C49  1  0.66523400  0.40735000  0.75788400  1
  C  C50  1  0.83380800  0.58863800  0.74517000  1
  C  C51  1  0.64946600  0.90735000  0.24211600  1
  C  C52  1  0.39453100  0.67312900  0.22140200  1
  C  C53  1  0.05777200  0.82709400  0.73067800  1
  C  C54  1  0.78530500  0.47788500  0.43113000  1
  C  C55  1  0.78530500  0.85417400  0.80742000  1
  C  C56  1  0.44767000  0.64584100  0.92304500  1
  C  C57  1  0.44767000  0.02462500  0.30182800  1
  C  C58  1  0.55845600  0.98190300  0.07655300  1
  C  C59  1  0.59702100  0.51985200  0.57716900  1
  C  C60  1  0.30733900  0.24297900  0.56436000  1
  C  C61  1  0.80994600  0.25767100  0.05227500  1
  C  C62  1  0.29074700  0.55561600  0.60618300  1
  C  C63  1  0.29074700  0.18456400  0.23513100  1
  C  C64  1  0.56248800  0.31853900  0.11672400  1
  C  C65  1  0.56248800  0.94576400  0.74394900  1
  C  C66  1  0.35869400  0.01040200  0.84829200  1
  C  C67  1  0.33130100  0.49265900  0.33864200  1
