# generated using pymatgen
data_CuNi5C12
_symmetry_space_group_name_H-M   'P 1'
_cell_length_a   5.04685661
_cell_length_b   5.04685661
_cell_length_c   9.53172606
_cell_angle_alpha   89.97358994
_cell_angle_beta   89.97358994
_cell_angle_gamma   120.04397090
_symmetry_Int_Tables_number   1
_chemical_formula_structural   CuNi5C12
_chemical_formula_sum   'Cu1 Ni5 C12'
_cell_volume   210.16061634
_cell_formula_units_Z   1
loop_
 _symmetry_equiv_pos_site_id
 _symmetry_equiv_pos_as_xyz
  1  'x, y, z'
loop_
 _atom_site_type_symbol
 _atom_site_label
 _atom_site_symmetry_multiplicity
 _atom_site_fract_x
 _atom_site_fract_y
 _atom_site_fract_z
 _atom_site_occupancy
  Ni  Ni0  1  0.83472300  0.16527700  0.50000000  1
  Ni  Ni1  1  0.33338000  0.66662000  0.00000000  1
  Ni  Ni2  1  0.66662000  0.33338000  0.00000000  1
  Ni  Ni3  1  0.16527700  0.83472300  0.50000000  1
  Ni  Ni4  1  0.50000000  0.50000000  0.50000000  1
  Cu  Cu5  1  0.00000000  0.00000000  0.00000000  1
  C  C6  1  0.00003000  0.36023700  0.89565300  1
  C  C7  1  0.63976300  0.99997000  0.10434700  1
  C  C8  1  0.83243000  0.50058300  0.59133500  1
  C  C9  1  0.50058300  0.83243000  0.59133500  1
  C  C10  1  0.49941700  0.16757000  0.40866500  1
  C  C11  1  0.83421300  0.83421300  0.40478100  1
  C  C12  1  0.16757000  0.49941700  0.40866500  1
  C  C13  1  0.36023700  0.00003000  0.89565300  1
  C  C14  1  0.63998700  0.63998700  0.89559800  1
  C  C15  1  0.99997000  0.63976300  0.10434700  1
  C  C16  1  0.36001300  0.36001300  0.10440200  1
  C  C17  1  0.16578700  0.16578700  0.59521900  1
