# generated using pymatgen
data_Cu6NiC
_symmetry_space_group_name_H-M   'P 1'
_cell_length_a   5.96120700
_cell_length_b   9.81480800
_cell_length_c   10.72917500
_cell_angle_alpha   90.00000000
_cell_angle_beta   90.00000000
_cell_angle_gamma   90.00000000
_symmetry_Int_Tables_number   1
_chemical_formula_structural   Cu6NiC
_chemical_formula_sum   'Cu24 Ni4 C4'
_cell_volume   627.74366692
_cell_formula_units_Z   4
loop_
 _symmetry_equiv_pos_site_id
 _symmetry_equiv_pos_as_xyz
  1  'x, y, z'
loop_
 _atom_site_type_symbol
 _atom_site_label
 _atom_site_symmetry_multiplicity
 _atom_site_fract_x
 _atom_site_fract_y
 _atom_site_fract_z
 _atom_site_occupancy
  C  C0  1  0.25000000  0.44356200  0.82024300  1
  C  C1  1  0.25000000  0.05643800  0.32024300  1
  C  C2  1  0.75000000  0.55643800  0.17975700  1
  C  C3  1  0.75000000  0.94356200  0.67975700  1
  Ni  Ni4  1  0.75000000  0.36130600  0.54488400  1
  Ni  Ni5  1  0.75000000  0.13869400  0.04488400  1
  Ni  Ni6  1  0.25000000  0.63869400  0.45511600  1
  Ni  Ni7  1  0.25000000  0.86130600  0.95511600  1
  Cu  Cu8  1  0.75000000  0.39656700  0.41507400  1
  Cu  Cu9  1  0.75000000  0.10343300  0.91507400  1
  Cu  Cu10  1  0.25000000  0.60343300  0.58492600  1
  Cu  Cu11  1  0.25000000  0.89656700  0.08492600  1
  Cu  Cu12  1  0.54092500  0.34401600  0.60948100  1
  Cu  Cu13  1  0.95907500  0.15598400  0.10948100  1
  Cu  Cu14  1  0.04092500  0.65598400  0.39051900  1
  Cu  Cu15  1  0.45907500  0.84401600  0.89051900  1
  Cu  Cu16  1  0.45907500  0.65598400  0.39051900  1
  Cu  Cu17  1  0.04092500  0.84401600  0.89051900  1
  Cu  Cu18  1  0.95907500  0.34401600  0.60948100  1
  Cu  Cu19  1  0.54092500  0.15598400  0.10948100  1
  Cu  Cu20  1  0.75000000  0.71553700  0.14458200  1
  Cu  Cu21  1  0.75000000  0.78446300  0.64458200  1
  Cu  Cu22  1  0.25000000  0.28446300  0.85541800  1
  Cu  Cu23  1  0.25000000  0.21553700  0.35541800  1
  Cu  Cu24  1  0.47799700  0.52547100  0.84844000  1
  Cu  Cu25  1  0.02200300  0.97452900  0.34844000  1
  Cu  Cu26  1  0.97799700  0.47452900  0.15156000  1
  Cu  Cu27  1  0.52200300  0.02547100  0.65156000  1
  Cu  Cu28  1  0.52200300  0.47452900  0.15156000  1
  Cu  Cu29  1  0.97799700  0.02547100  0.65156000  1
  Cu  Cu30  1  0.02200300  0.52547100  0.84844000  1
  Cu  Cu31  1  0.47799700  0.97452900  0.34844000  1
