# generated using pymatgen
data_Cu2Ni12C17
_symmetry_space_group_name_H-M   'P 1'
_cell_length_a   12.97873900
_cell_length_b   6.43157300
_cell_length_c   9.36622600
_cell_angle_alpha   73.06266179
_cell_angle_beta   90.00000000
_cell_angle_gamma   90.00000000
_symmetry_Int_Tables_number   1
_chemical_formula_structural   Cu2Ni12C17
_chemical_formula_sum   'Cu4 Ni24 C34'
_cell_volume   747.92074480
_cell_formula_units_Z   2
loop_
 _symmetry_equiv_pos_site_id
 _symmetry_equiv_pos_as_xyz
  1  'x, y, z'
loop_
 _atom_site_type_symbol
 _atom_site_label
 _atom_site_symmetry_multiplicity
 _atom_site_fract_x
 _atom_site_fract_y
 _atom_site_fract_z
 _atom_site_occupancy
  C  C0  1  0.14358800  0.14857800  0.63061000  1
  C  C1  1  0.64358800  0.85142200  0.86939000  1
  C  C2  1  0.85641200  0.85142200  0.36939000  1
  C  C3  1  0.35641200  0.14857800  0.13061000  1
  C  C4  1  0.50000000  0.50000000  0.50000000  1
  C  C5  1  0.00000000  0.50000000  0.00000000  1
  Ni  Ni6  1  0.40050500  0.18022300  0.71665100  1
  Ni  Ni7  1  0.90050500  0.81977700  0.78334900  1
  Ni  Ni8  1  0.59949500  0.81977700  0.28334900  1
  Ni  Ni9  1  0.09949500  0.18022300  0.21665100  1
  Ni  Ni10  1  0.37024500  0.41538200  0.73783500  1
  Ni  Ni11  1  0.87024500  0.58461800  0.76216500  1
  Ni  Ni12  1  0.62975500  0.58461800  0.26216500  1
  Ni  Ni13  1  0.12975500  0.41538200  0.23783500  1
  Ni  Ni14  1  0.40254600  0.56938900  0.22736300  1
  Ni  Ni15  1  0.90254600  0.43061100  0.27263700  1
  Ni  Ni16  1  0.59745400  0.43061100  0.77263700  1
  Ni  Ni17  1  0.09745400  0.56938900  0.72736300  1
  Ni  Ni18  1  0.31512500  0.51611500  0.35051700  1
  Ni  Ni19  1  0.81512500  0.48388500  0.14948300  1
  Ni  Ni20  1  0.68487500  0.48388500  0.64948300  1
  Ni  Ni21  1  0.18487500  0.51611500  0.85051700  1
  Ni  Ni22  1  0.55814500  0.16871800  0.39782400  1
  Ni  Ni23  1  0.05814500  0.83128200  0.10217600  1
  Ni  Ni24  1  0.44185500  0.83128200  0.60217600  1
  Ni  Ni25  1  0.94185500  0.16871800  0.89782400  1
  Ni  Ni26  1  0.63836500  0.18727300  0.51966900  1
  Ni  Ni27  1  0.13836500  0.81272700  0.98033100  1
  Ni  Ni28  1  0.36163500  0.81272700  0.48033100  1
  Ni  Ni29  1  0.86163500  0.18727300  0.01966900  1
  Cu  Cu30  1  0.35261400  0.75998000  0.89826900  1
  Cu  Cu31  1  0.85261400  0.24002000  0.60173100  1
  Cu  Cu32  1  0.64738600  0.24002000  0.10173100  1
  Cu  Cu33  1  0.14738600  0.75998000  0.39826900  1
  C  C34  1  0.26238100  0.89224200  0.91831500  1
  C  C35  1  0.76238100  0.10775800  0.58168500  1
  C  C36  1  0.73761900  0.10775800  0.08168500  1
  C  C37  1  0.23761900  0.89224200  0.41831500  1
  C  C38  1  0.41687800  0.69599200  0.03544700  1
  C  C39  1  0.91687800  0.30400800  0.46455300  1
  C  C40  1  0.58312200  0.30400800  0.96455300  1
  C  C41  1  0.08312200  0.69599200  0.53544700  1
  C  C42  1  0.41754400  0.89595900  0.77219400  1
  C  C43  1  0.91754400  0.10404100  0.72780600  1
  C  C44  1  0.58245600  0.10404100  0.22780600  1
  C  C45  1  0.08245600  0.89595900  0.27219400  1
  C  C46  1  0.31518600  0.56168800  0.85985400  1
  C  C47  1  0.81518600  0.43831200  0.64014600  1
  C  C48  1  0.68481400  0.43831200  0.14014600  1
  C  C49  1  0.18481400  0.56168800  0.35985400  1
  C  C50  1  0.38997900  0.33769000  0.66488000  1
  C  C51  1  0.88997900  0.66231000  0.83512000  1
  C  C52  1  0.61002100  0.66231000  0.33512000  1
  C  C53  1  0.11002100  0.33769000  0.16488000  1
  C  C54  1  0.38869200  0.48530500  0.33276000  1
  C  C55  1  0.88869200  0.51469500  0.16724000  1
  C  C56  1  0.61130800  0.51469500  0.66724000  1
  C  C57  1  0.11130800  0.48530500  0.83276000  1
  C  C58  1  0.56394300  0.20560900  0.49306100  1
  C  C59  1  0.06394300  0.79439100  0.00693900  1
  C  C60  1  0.43605700  0.79439100  0.50693900  1
  C  C61  1  0.93605700  0.20560900  0.99306100  1
