# generated using pymatgen
data_CuNiC5
_symmetry_space_group_name_H-M   'P 1'
_cell_length_a   8.60871792
_cell_length_b   8.60871792
_cell_length_c   8.60871762
_cell_angle_alpha   107.36503042
_cell_angle_beta   107.36503042
_cell_angle_gamma   107.36503832
_symmetry_Int_Tables_number   1
_chemical_formula_structural   CuNiC5
_chemical_formula_sum   'Cu6 Ni6 C30'
_cell_volume   525.94559930
_cell_formula_units_Z   6
loop_
 _symmetry_equiv_pos_site_id
 _symmetry_equiv_pos_as_xyz
  1  'x, y, z'
loop_
 _atom_site_type_symbol
 _atom_site_label
 _atom_site_symmetry_multiplicity
 _atom_site_fract_x
 _atom_site_fract_y
 _atom_site_fract_z
 _atom_site_occupancy
  C  C0  1  0.54034100  0.76744100  0.94263100  1
  C  C1  1  0.23255900  0.05736900  0.45965900  1
  C  C2  1  0.05736900  0.45965900  0.23255900  1
  C  C3  1  0.94263100  0.54034100  0.76744100  1
  C  C4  1  0.76744100  0.94263100  0.54034100  1
  C  C5  1  0.45965900  0.23255900  0.05736900  1
  Ni  Ni6  1  0.10905800  0.28634300  0.87327900  1
  Ni  Ni7  1  0.12672100  0.89094200  0.71365700  1
  Ni  Ni8  1  0.71365700  0.12672100  0.89094200  1
  Ni  Ni9  1  0.28634300  0.87327900  0.10905800  1
  Ni  Ni10  1  0.87327900  0.10905800  0.28634300  1
  Ni  Ni11  1  0.89094200  0.71365700  0.12672100  1
  Cu  Cu12  1  0.21549500  0.43921400  0.61103400  1
  Cu  Cu13  1  0.56078600  0.38896600  0.78450500  1
  Cu  Cu14  1  0.38896600  0.78450500  0.56078600  1
  Cu  Cu15  1  0.61103400  0.21549500  0.43921400  1
  Cu  Cu16  1  0.43921400  0.61103400  0.21549500  1
  Cu  Cu17  1  0.78450500  0.56078600  0.38896600  1
  C  C18  1  0.01992300  0.04933400  0.70437300  1
  C  C19  1  0.29562700  0.98007700  0.95066600  1
  C  C20  1  0.11442400  0.43486300  0.74239900  1
  C  C21  1  0.25760100  0.88557600  0.56513700  1
  C  C22  1  0.07591600  0.34371800  0.40003300  1
  C  C23  1  0.35174800  0.65086700  0.66644400  1
  C  C24  1  0.56513700  0.25760100  0.88557600  1
  C  C25  1  0.34913300  0.33355600  0.64825200  1
  C  C26  1  0.65628200  0.59996700  0.92408400  1
  C  C27  1  0.59996700  0.92408400  0.65628200  1
  C  C28  1  0.33355600  0.64825200  0.34913300  1
  C  C29  1  0.95066600  0.29562700  0.98007700  1
  C  C30  1  0.04933400  0.70437300  0.01992300  1
  C  C31  1  0.66644400  0.35174800  0.65086700  1
  C  C32  1  0.40003300  0.07591600  0.34371800  1
  C  C33  1  0.34371800  0.40003300  0.07591600  1
  C  C34  1  0.65086700  0.66644400  0.35174800  1
  C  C35  1  0.43486300  0.74239900  0.11442400  1
  C  C36  1  0.64825200  0.34913300  0.33355500  1
  C  C37  1  0.92408400  0.65628200  0.59996700  1
  C  C38  1  0.74239900  0.11442400  0.43486300  1
  C  C39  1  0.88557600  0.56513700  0.25760100  1
  C  C40  1  0.70437300  0.01992300  0.04933400  1
  C  C41  1  0.98007700  0.95066600  0.29562700  1
