# generated using pymatgen
data_Cu16NiC12
_symmetry_space_group_name_H-M   'P 1'
_cell_length_a   9.37921849
_cell_length_b   9.37921849
_cell_length_c   9.37921849
_cell_angle_alpha   60.00000000
_cell_angle_beta   60.00000000
_cell_angle_gamma   60.00000000
_symmetry_Int_Tables_number   1
_chemical_formula_structural   Cu16NiC12
_chemical_formula_sum   'Cu32 Ni2 C24'
_cell_volume   583.42490157
_cell_formula_units_Z   2
loop_
 _symmetry_equiv_pos_site_id
 _symmetry_equiv_pos_as_xyz
  1  'x, y, z'
loop_
 _atom_site_type_symbol
 _atom_site_label
 _atom_site_symmetry_multiplicity
 _atom_site_fract_x
 _atom_site_fract_y
 _atom_site_fract_z
 _atom_site_occupancy
  C  C0  1  0.52999300  0.97000700  0.97000700  1
  C  C1  1  0.52999300  0.52999300  0.97000700  1
  C  C2  1  0.27999300  0.27999300  0.72000700  1
  C  C3  1  0.97000700  0.52999300  0.52999300  1
  C  C4  1  0.72000700  0.27999300  0.72000700  1
  C  C5  1  0.27999300  0.72000700  0.27999300  1
  C  C6  1  0.52999300  0.97000700  0.52999300  1
  C  C7  1  0.97000700  0.52999300  0.97000700  1
  C  C8  1  0.27999300  0.72000700  0.72000700  1
  C  C9  1  0.72000700  0.27999300  0.27999300  1
  C  C10  1  0.72000700  0.72000700  0.27999300  1
  C  C11  1  0.97000700  0.97000700  0.52999300  1
  C  C12  1  0.12500000  0.62500000  0.12500000  1
  C  C13  1  0.62500000  0.12500000  0.12500000  1
  C  C14  1  0.12500000  0.12500000  0.62500000  1
  C  C15  1  0.12500000  0.12500000  0.12500000  1
  C  C16  1  0.27493400  0.90835500  0.90835500  1
  C  C17  1  0.34164500  0.34164500  0.97506600  1
  C  C18  1  0.34164500  0.34164500  0.34164500  1
  C  C19  1  0.90835500  0.27493400  0.90835500  1
  C  C20  1  0.34164500  0.97506600  0.34164500  1
  C  C21  1  0.90835500  0.90835500  0.90835500  1
  C  C22  1  0.97506600  0.34164500  0.34164500  1
  C  C23  1  0.90835500  0.90835500  0.27493400  1
  Ni  Ni24  1  0.50000000  0.50000000  0.50000000  1
  Ni  Ni25  1  0.75000000  0.75000000  0.75000000  1
  Cu  Cu26  1  0.56520900  0.56520900  0.30437200  1
  Cu  Cu27  1  0.56520900  0.56520900  0.56520900  1
  Cu  Cu28  1  0.56520900  0.30437200  0.56520900  1
  Cu  Cu29  1  0.20496300  0.49741600  0.32558100  1
  Cu  Cu30  1  0.30437200  0.56520900  0.56520900  1
  Cu  Cu31  1  0.49741600  0.20496300  0.97204000  1
  Cu  Cu32  1  0.97204000  0.32558100  0.49741600  1
  Cu  Cu33  1  0.32558100  0.49741600  0.97204000  1
  Cu  Cu34  1  0.27796000  0.04503700  0.92441900  1
  Cu  Cu35  1  0.04503700  0.27796000  0.75258400  1
  Cu  Cu36  1  0.49741600  0.32558100  0.20496300  1
  Cu  Cu37  1  0.20496300  0.32558100  0.97204000  1
  Cu  Cu38  1  0.27796000  0.75258400  0.04503700  1
  Cu  Cu39  1  0.92441900  0.04503700  0.75258400  1
  Cu  Cu40  1  0.49741600  0.97204000  0.32558100  1
  Cu  Cu41  1  0.32558100  0.97204000  0.20496300  1
  Cu  Cu42  1  0.92441900  0.27796000  0.04503700  1
  Cu  Cu43  1  0.32558100  0.20496300  0.49741600  1
  Cu  Cu44  1  0.75258400  0.27796000  0.92441900  1
  Cu  Cu45  1  0.97204000  0.49741600  0.20496300  1
  Cu  Cu46  1  0.04503700  0.92441900  0.27796000  1
  Cu  Cu47  1  0.75258400  0.92441900  0.04503700  1
  Cu  Cu48  1  0.20496300  0.97204000  0.49741600  1
  Cu  Cu49  1  0.97204000  0.20496300  0.32558100  1
  Cu  Cu50  1  0.92441900  0.75258400  0.27796000  1
  Cu  Cu51  1  0.27796000  0.92441900  0.75258400  1
  Cu  Cu52  1  0.75258400  0.04503700  0.27796000  1
  Cu  Cu53  1  0.94562800  0.68479100  0.68479100  1
  Cu  Cu54  1  0.04503700  0.75258400  0.92441900  1
  Cu  Cu55  1  0.68479100  0.94562800  0.68479100  1
  Cu  Cu56  1  0.68479100  0.68479100  0.68479100  1
  Cu  Cu57  1  0.68479100  0.68479100  0.94562800  1
