# generated using pymatgen
data_Cu5NiC5
_symmetry_space_group_name_H-M   'P 1'
_cell_length_a   7.65043300
_cell_length_b   6.32025000
_cell_length_c   16.85641673
_cell_angle_alpha   87.08654857
_cell_angle_beta   90.00000000
_cell_angle_gamma   90.00000000
_symmetry_Int_Tables_number   1
_chemical_formula_structural   Cu5NiC5
_chemical_formula_sum   'Cu40 Ni8 C40'
_cell_volume   813.99890991
_cell_formula_units_Z   8
loop_
 _symmetry_equiv_pos_site_id
 _symmetry_equiv_pos_as_xyz
  1  'x, y, z'
loop_
 _atom_site_type_symbol
 _atom_site_label
 _atom_site_symmetry_multiplicity
 _atom_site_fract_x
 _atom_site_fract_y
 _atom_site_fract_z
 _atom_site_occupancy
  C  C0  1  0.34338600  0.19399100  0.97319400  1
  C  C1  1  0.14041100  0.18574700  0.93836300  1
  C  C2  1  0.14974900  0.70193100  0.95874700  1
  C  C3  1  0.31031200  0.21679100  0.87284300  1
  C  C4  1  0.35220100  0.68099800  0.92875500  1
  C  C5  1  0.19882800  0.73793300  0.85637300  1
  C  C6  1  0.42692400  0.44347900  0.79379400  1
  C  C7  1  0.26807700  0.31818500  0.75494200  1
  C  C8  1  0.06271600  0.82178400  0.76049700  1
  C  C9  1  0.76807700  0.68181500  0.74505800  1
  C  C10  1  0.26746200  0.80668400  0.74386700  1
  C  C11  1  0.92692400  0.55652100  0.70620600  1
  C  C12  1  0.76746200  0.19331600  0.75613300  1
  C  C13  1  0.56271600  0.17821600  0.73950300  1
  C  C14  1  0.81031200  0.78320900  0.62715700  1
  C  C15  1  0.69882800  0.26206700  0.64362700  1
  C  C16  1  0.64041100  0.81425300  0.56163700  1
  C  C17  1  0.84338600  0.80600900  0.52680600  1
  C  C18  1  0.85220100  0.31900200  0.57124500  1
  C  C19  1  0.64974900  0.29806900  0.54125300  1
  C  C20  1  0.35025100  0.70193100  0.45874700  1
  C  C21  1  0.14779900  0.68099800  0.42875500  1
  C  C22  1  0.15661400  0.19399100  0.47319400  1
  C  C23  1  0.35958900  0.18574700  0.43836300  1
  C  C24  1  0.30117200  0.73793300  0.35637300  1
  C  C25  1  0.18968800  0.21679100  0.37284300  1
  C  C26  1  0.43728400  0.82178400  0.26049700  1
  C  C27  1  0.23253800  0.80668400  0.24386700  1
  C  C28  1  0.07307600  0.44347900  0.29379400  1
  C  C29  1  0.73253800  0.19331600  0.25613300  1
  C  C30  1  0.23192300  0.31818500  0.25494200  1
  C  C31  1  0.93728400  0.17821600  0.23950300  1
  C  C32  1  0.73192300  0.68181500  0.24505800  1
  C  C33  1  0.57307600  0.55652100  0.20620600  1
  C  C34  1  0.80117200  0.26206700  0.14362700  1
  C  C35  1  0.64779900  0.31900200  0.07124500  1
  C  C36  1  0.68968800  0.78320900  0.12715700  1
  C  C37  1  0.85025100  0.29806900  0.04125300  1
  C  C38  1  0.85958900  0.81425300  0.06163700  1
  C  C39  1  0.65661400  0.80600900  0.02680600  1
  Ni  Ni40  1  0.85083600  0.23664800  0.89827900  1
  Ni  Ni41  1  0.65590100  0.71633300  0.88733200  1
  Ni  Ni42  1  0.35083600  0.76335200  0.60172100  1
  Ni  Ni43  1  0.15590100  0.28366700  0.61266800  1
  Ni  Ni44  1  0.84409900  0.71633300  0.38733200  1
  Ni  Ni45  1  0.64916400  0.23664800  0.39827900  1
  Ni  Ni46  1  0.34409900  0.28366700  0.11266800  1
  Ni  Ni47  1  0.14916400  0.76335200  0.10172100  1
  Cu  Cu48  1  0.95427500  0.23428900  0.96001500  1
  Cu  Cu49  1  0.27014600  0.14637300  0.92718600  1
  Cu  Cu50  1  0.69025000  0.23922800  0.90881300  1
  Cu  Cu51  1  0.55155400  0.72684200  0.94778900  1
  Cu  Cu52  1  0.22524200  0.65206300  0.91404700  1
  Cu  Cu53  1  0.81488600  0.74481200  0.89647600  1
  Cu  Cu54  1  0.92089000  0.23613500  0.83068700  1
  Cu  Cu55  1  0.36968500  0.30443800  0.79181000  1
  Cu  Cu56  1  0.59031000  0.67813100  0.82034500  1
  Cu  Cu57  1  0.17859500  0.84145500  0.78472400  1
  Cu  Cu58  1  0.86968500  0.69556200  0.70819000  1
  Cu  Cu59  1  0.67859500  0.15854500  0.71527600  1
  Cu  Cu60  1  0.42089000  0.76386500  0.66931300  1
  Cu  Cu61  1  0.09031000  0.32186900  0.67965500  1
  Cu  Cu62  1  0.19025000  0.76077200  0.59118700  1
  Cu  Cu63  1  0.77014600  0.85362700  0.57281400  1
  Cu  Cu64  1  0.31488600  0.25518800  0.60352400  1
  Cu  Cu65  1  0.45427500  0.76571100  0.53998500  1
  Cu  Cu66  1  0.72524200  0.34793700  0.58595300  1
  Cu  Cu67  1  0.05155400  0.27315800  0.55221100  1
  Cu  Cu68  1  0.94844600  0.72684200  0.44778900  1
  Cu  Cu69  1  0.27475800  0.65206300  0.41404700  1
  Cu  Cu70  1  0.54572500  0.23428900  0.46001500  1
  Cu  Cu71  1  0.68511400  0.74481200  0.39647600  1
  Cu  Cu72  1  0.22985400  0.14637300  0.42718600  1
  Cu  Cu73  1  0.80975000  0.23922800  0.40881300  1
  Cu  Cu74  1  0.90969000  0.67813100  0.32034500  1
  Cu  Cu75  1  0.57911000  0.23613500  0.33068700  1
  Cu  Cu76  1  0.32140500  0.84145500  0.28472400  1
  Cu  Cu77  1  0.13031500  0.30443800  0.29181000  1
  Cu  Cu78  1  0.82140500  0.15854500  0.21527600  1
  Cu  Cu79  1  0.40969000  0.32186900  0.17965500  1
  Cu  Cu80  1  0.63031500  0.69556200  0.20819000  1
  Cu  Cu81  1  0.07911000  0.76386500  0.16931300  1
  Cu  Cu82  1  0.18511400  0.25518800  0.10352400  1
  Cu  Cu83  1  0.77475800  0.34793700  0.08595300  1
  Cu  Cu84  1  0.44844600  0.27315800  0.05221100  1
  Cu  Cu85  1  0.30975000  0.76077200  0.09118700  1
  Cu  Cu86  1  0.72985400  0.85362700  0.07281400  1
  Cu  Cu87  1  0.04572500  0.76571100  0.03998500  1
