# generated using pymatgen
data_Cu(NiC6)5
_symmetry_space_group_name_H-M   'P 1'
_cell_length_a   8.85441171
_cell_length_b   8.85441171
_cell_length_c   8.27575428
_cell_angle_alpha   62.23912335
_cell_angle_beta   62.23912335
_cell_angle_gamma   42.15261834
_symmetry_Int_Tables_number   1
_chemical_formula_structural   Cu(NiC6)5
_chemical_formula_sum   'Cu1 Ni5 C30'
_cell_volume   377.30109240
_cell_formula_units_Z   1
loop_
 _symmetry_equiv_pos_site_id
 _symmetry_equiv_pos_as_xyz
  1  'x, y, z'
loop_
 _atom_site_type_symbol
 _atom_site_label
 _atom_site_symmetry_multiplicity
 _atom_site_fract_x
 _atom_site_fract_y
 _atom_site_fract_z
 _atom_site_occupancy
  C  C0  1  0.75837800  0.25915600  0.28372300  1
  C  C1  1  0.25915600  0.75837800  0.28372300  1
  C  C2  1  0.59883800  0.10009300  0.01675600  1
  C  C3  1  0.10009300  0.59883800  0.01675600  1
  C  C4  1  0.89118300  0.39231800  0.69837000  1
  C  C5  1  0.39231800  0.89118300  0.69837000  1
  Ni  Ni6  1  0.82054800  0.82054800  0.37109000  1
  Ni  Ni7  1  0.32006300  0.32006300  0.37158600  1
  Ni  Ni8  1  0.99395100  0.99395100  0.64119600  1
  Ni  Ni9  1  0.18572100  0.18572100  0.98802200  1
  Ni  Ni10  1  0.68581900  0.68581900  0.98823400  1
  Cu  Cu11  1  0.49585300  0.49585300  0.63999600  1
  C  C12  1  0.41828500  0.91424000  0.33428800  1
  C  C13  1  0.91424000  0.41828500  0.33428800  1
  C  C14  1  0.58288400  0.08516000  0.66647400  1
  C  C15  1  0.08516000  0.58288400  0.66647400  1
  C  C16  1  0.00001800  0.00001800  0.00019300  1
  C  C17  1  0.49905600  0.49905600  0.99952600  1
  C  C18  1  0.53948700  0.53948700  0.11228900  1
  C  C19  1  0.03904500  0.03904500  0.11576800  1
  C  C20  1  0.95890000  0.45936400  0.14095700  1
  C  C21  1  0.45936400  0.95890000  0.14095700  1
  C  C22  1  0.90319300  0.90319300  0.07795400  1
  C  C23  1  0.40237400  0.40237400  0.07930600  1
  C  C24  1  0.32349600  0.81515000  0.44225100  1
  C  C25  1  0.81515000  0.32349600  0.44225100  1
  C  C26  1  0.97008700  0.47037300  0.41984200  1
  C  C27  1  0.47037300  0.97008700  0.41984200  1
  C  C28  1  0.62441100  0.12517400  0.47293900  1
  C  C29  1  0.12517400  0.62441100  0.47293900  1
  C  C30  1  0.55537500  0.55537500  0.80512100  1
  C  C31  1  0.05789400  0.05789400  0.80681400  1
  C  C32  1  0.48745800  0.98647200  0.77787800  1
  C  C33  1  0.98647200  0.48745800  0.77787800  1
  C  C34  1  0.63751600  0.14265100  0.74797500  1
  C  C35  1  0.14265100  0.63751600  0.74797500  1
