# generated using pymatgen
data_Cu15Ni2C17
_symmetry_space_group_name_H-M   'P 1'
_cell_length_a   9.71147400
_cell_length_b   10.19269047
_cell_length_c   7.01071954
_cell_angle_alpha   109.53788970
_cell_angle_beta   99.52596611
_cell_angle_gamma   99.03570302
_symmetry_Int_Tables_number   1
_chemical_formula_structural   Cu15Ni2C17
_chemical_formula_sum   'Cu30 Ni4 C34'
_cell_volume   627.91959100
_cell_formula_units_Z   2
loop_
 _symmetry_equiv_pos_site_id
 _symmetry_equiv_pos_as_xyz
  1  'x, y, z'
loop_
 _atom_site_type_symbol
 _atom_site_label
 _atom_site_symmetry_multiplicity
 _atom_site_fract_x
 _atom_site_fract_y
 _atom_site_fract_z
 _atom_site_occupancy
  C  C0  1  0.94968900  0.67696700  0.30164800  1
  C  C1  1  0.05031100  0.32303300  0.69835200  1
  C  C2  1  0.50000000  0.50000000  0.50000000  1
  C  C3  1  0.50000000  0.00000000  0.50000000  1
  Ni  Ni4  1  0.64686400  0.25815200  0.29750900  1
  Ni  Ni5  1  0.25360400  0.09609700  0.29818200  1
  Ni  Ni6  1  0.74639600  0.90390300  0.70181800  1
  Ni  Ni7  1  0.35313600  0.74184800  0.70249100  1
  Cu  Cu8  1  0.94564200  0.66682000  0.01259700  1
  Cu  Cu9  1  0.78066100  0.53777500  0.00303100  1
  Cu  Cu10  1  0.99507300  0.17503800  0.14918200  1
  Cu  Cu11  1  0.46841100  0.68575700  0.06923400  1
  Cu  Cu12  1  0.85772900  0.22711800  0.14483700  1
  Cu  Cu13  1  0.44881200  0.48288100  0.13052000  1
  Cu  Cu14  1  0.46095500  0.08738500  0.12297700  1
  Cu  Cu15  1  0.19608200  0.02031800  0.05720700  1
  Cu  Cu16  1  0.69093500  0.72136100  0.26045400  1
  Cu  Cu17  1  0.21905600  0.71096400  0.30798200  1
  Cu  Cu18  1  0.44202600  0.68118200  0.31729600  1
  Cu  Cu19  1  0.75371900  0.79126000  0.42016300  1
  Cu  Cu20  1  0.91884700  0.26498100  0.40565300  1
  Cu  Cu21  1  0.16213000  0.51442100  0.37200100  1
  Cu  Cu22  1  0.97115000  0.85189800  0.59909800  1
  Cu  Cu23  1  0.02885000  0.14810200  0.40090200  1
  Cu  Cu24  1  0.83787000  0.48557900  0.62799900  1
  Cu  Cu25  1  0.08115300  0.73501900  0.59434700  1
  Cu  Cu26  1  0.24628100  0.20874000  0.57983700  1
  Cu  Cu27  1  0.55797400  0.31881800  0.68270400  1
  Cu  Cu28  1  0.78094400  0.28903600  0.69201800  1
  Cu  Cu29  1  0.30906500  0.27863900  0.73954600  1
  Cu  Cu30  1  0.80391800  0.97968200  0.94279300  1
  Cu  Cu31  1  0.53904500  0.91261500  0.87702300  1
  Cu  Cu32  1  0.55118800  0.51711900  0.86948000  1
  Cu  Cu33  1  0.14227100  0.77288200  0.85516300  1
  Cu  Cu34  1  0.53158900  0.31424300  0.93076600  1
  Cu  Cu35  1  0.00492700  0.82496200  0.85081800  1
  Cu  Cu36  1  0.21933900  0.46222500  0.99696900  1
  Cu  Cu37  1  0.05435800  0.33318000  0.98740300  1
  C  C38  1  0.87702100  0.60204800  0.06746700  1
  C  C39  1  0.91003000  0.16757200  0.08227400  1
  C  C40  1  0.40230000  0.57718400  0.10325600  1
  C  C41  1  0.56536900  0.13546100  0.13286300  1
  C  C42  1  0.27237200  0.12592800  0.13996900  1
  C  C43  1  0.78184400  0.80254100  0.32838300  1
  C  C44  1  0.80413600  0.35689500  0.28828200  1
  C  C45  1  0.09320600  0.98585200  0.28975000  1
  C  C46  1  0.34217800  0.96531700  0.34073900  1
  C  C47  1  0.13419800  0.58203700  0.29811200  1
  C  C48  1  0.57636300  0.41548800  0.33838300  1
  C  C49  1  0.48013000  0.72070700  0.42087400  1
  C  C50  1  0.63330800  0.10161800  0.39128400  1
  C  C51  1  0.00669500  0.25754300  0.46078100  1
  C  C52  1  0.30980400  0.31401300  0.39748400  1
  C  C53  1  0.69019600  0.68598700  0.60251600  1
  C  C54  1  0.99330500  0.74245700  0.53921900  1
  C  C55  1  0.36669200  0.89838200  0.60871600  1
  C  C56  1  0.51987000  0.27929300  0.57912600  1
  C  C57  1  0.42363700  0.58451200  0.66161700  1
  C  C58  1  0.86580200  0.41796300  0.70188800  1
  C  C59  1  0.65782200  0.03468300  0.65926100  1
  C  C60  1  0.90679400  0.01414800  0.71025000  1
  C  C61  1  0.19586400  0.64310500  0.71171800  1
  C  C62  1  0.21815600  0.19745900  0.67161700  1
  C  C63  1  0.72762800  0.87407200  0.86003100  1
  C  C64  1  0.43463100  0.86453900  0.86713700  1
  C  C65  1  0.59770000  0.42281600  0.89674400  1
  C  C66  1  0.08997000  0.83242800  0.91772600  1
  C  C67  1  0.12297900  0.39795200  0.93253300  1
