# generated using pymatgen
data_Cu(NiC4)2
_symmetry_space_group_name_H-M   'P 1'
_cell_length_a   15.61714531
_cell_length_b   11.62285231
_cell_length_c   11.35099822
_cell_angle_alpha   85.64412277
_cell_angle_beta   47.90949859
_cell_angle_gamma   46.44637864
_symmetry_Int_Tables_number   1
_chemical_formula_structural   Cu(NiC4)2
_chemical_formula_sum   'Cu6 Ni12 C48'
_cell_volume   771.79424337
_cell_formula_units_Z   6
loop_
 _symmetry_equiv_pos_site_id
 _symmetry_equiv_pos_as_xyz
  1  'x, y, z'
loop_
 _atom_site_type_symbol
 _atom_site_label
 _atom_site_symmetry_multiplicity
 _atom_site_fract_x
 _atom_site_fract_y
 _atom_site_fract_z
 _atom_site_occupancy
  C  C0  1  0.62295000  0.62295000  0.87705000  1
  C  C1  1  0.00208800  0.00208800  0.49791200  1
  C  C2  1  0.11083800  0.46254000  0.53303300  1
  C  C3  1  0.80233700  0.05940900  0.91813700  1
  C  C4  1  0.33186300  0.02988300  0.44766300  1
  C  C5  1  0.71696700  0.35641100  0.13916200  1
  C  C6  1  0.75208800  0.75208800  0.24791200  1
  C  C7  1  0.37295000  0.37295000  0.62705000  1
  C  C8  1  0.35641100  0.71696700  0.78746000  1
  C  C9  1  0.02988300  0.33186300  0.19059100  1
  C  C10  1  0.05940900  0.80233700  0.22011700  1
  C  C11  1  0.46254000  0.11083800  0.89358900  1
  Ni  Ni12  1  0.15898400  0.15898400  0.34101600  1
  Ni  Ni13  1  0.49336400  0.49336400  0.00663600  1
  Ni  Ni14  1  0.56430000  0.94650600  0.04291700  1
  Ni  Ni15  1  0.28287300  0.58114600  0.42468400  1
  Ni  Ni16  1  0.82531600  0.53870300  0.96712700  1
  Ni  Ni17  1  0.20708300  0.80372400  0.68570000  1
  Ni  Ni18  1  0.90898400  0.90898400  0.09101600  1
  Ni  Ni19  1  0.24336400  0.24336400  0.75663600  1
  Ni  Ni20  1  0.80372400  0.20708300  0.30349400  1
  Ni  Ni21  1  0.53870300  0.82531600  0.66885400  1
  Ni  Ni22  1  0.58114600  0.28287300  0.71129700  1
  Ni  Ni23  1  0.94650600  0.56430000  0.44627600  1
  Cu  Cu24  1  0.87385400  0.87385400  0.62614600  1
  Cu  Cu25  1  0.94391500  0.19834500  0.73939400  1
  Cu  Cu26  1  0.51060600  0.13165400  0.30608500  1
  Cu  Cu27  1  0.62385400  0.62385400  0.37614600  1
  Cu  Cu28  1  0.13165400  0.51060600  0.05165500  1
  Cu  Cu29  1  0.19834500  0.94391500  0.11834600  1
  C  C30  1  0.42617000  0.97238300  0.08161100  1
  C  C31  1  0.75459800  0.31402500  0.77003700  1
  C  C32  1  0.61417900  0.01681400  0.91406200  1
  C  C33  1  0.03113700  0.84122700  0.59376100  1
  C  C34  1  0.47371000  0.42553700  0.15038500  1
  C  C35  1  0.18371100  0.06696100  0.44769700  1
  C  C36  1  0.80448100  0.67056000  0.88368000  1
  C  C37  1  0.76107800  0.47150900  0.97080100  1
  C  C38  1  0.39589400  0.11899500  0.29642100  1
  C  C39  1  0.95357900  0.06131000  0.85410600  1
  C  C40  1  0.27919900  0.45338800  0.48892200  1
  C  C41  1  0.36632000  0.60872100  0.44551900  1
  C  C42  1  0.80230300  0.94836900  0.06628900  1
  C  C43  1  0.09961500  0.29963100  0.77629000  1
  C  C44  1  0.65623900  0.71612500  0.21886300  1
  C  C45  1  0.33593800  0.79505500  0.63582100  1
  C  C46  1  0.47996300  0.08865900  0.49540200  1
  C  C47  1  0.16838900  0.73016400  0.82383000  1
  C  C48  1  0.73016400  0.16838900  0.27761700  1
  C  C49  1  0.08865900  0.47996300  0.93597500  1
  C  C50  1  0.79505500  0.33593800  0.23318600  1
  C  C51  1  0.71612500  0.65623800  0.40877300  1
  C  C52  1  0.29963100  0.09961500  0.82446300  1
  C  C53  1  0.94836900  0.80230300  0.18303900  1
  C  C54  1  0.60872100  0.36632000  0.57944000  1
  C  C55  1  0.45338800  0.27919900  0.77849100  1
  C  C56  1  0.06131000  0.95357900  0.13100500  1
  C  C57  1  0.11899500  0.39589400  0.18869000  1
  C  C58  1  0.47150900  0.76107800  0.79661200  1
  C  C59  1  0.67056000  0.80448100  0.64127900  1
  C  C60  1  0.06696100  0.18371100  0.30163100  1
  C  C61  1  0.42553700  0.47371000  0.95036900  1
  C  C62  1  0.84122700  0.03113700  0.53387500  1
  C  C63  1  0.01681400  0.61417900  0.45494500  1
  C  C64  1  0.31402500  0.75459800  0.16134100  1
  C  C65  1  0.97238300  0.42617000  0.51983600  1
