# generated using pymatgen
data_Cu(NiC)2
_symmetry_space_group_name_H-M   'P 1'
_cell_length_a   6.79725200
_cell_length_b   6.79789600
_cell_length_c   8.18507789
_cell_angle_alpha   80.48751912
_cell_angle_beta   90.00000000
_cell_angle_gamma   90.00000000
_symmetry_Int_Tables_number   1
_chemical_formula_structural   Cu(NiC)2
_chemical_formula_sum   'Cu4 Ni8 C8'
_cell_volume   373.00749205
_cell_formula_units_Z   4
loop_
 _symmetry_equiv_pos_site_id
 _symmetry_equiv_pos_as_xyz
  1  'x, y, z'
loop_
 _atom_site_type_symbol
 _atom_site_label
 _atom_site_symmetry_multiplicity
 _atom_site_fract_x
 _atom_site_fract_y
 _atom_site_fract_z
 _atom_site_occupancy
  C  C0  1  0.05333400  0.75079300  0.13888700  1
  C  C1  1  0.55333400  0.74920700  0.86111300  1
  C  C2  1  0.94666600  0.24920700  0.86111300  1
  C  C3  1  0.44666600  0.25079300  0.13888700  1
  C  C4  1  0.14600800  0.67555900  0.57493600  1
  C  C5  1  0.64600800  0.82444100  0.42506400  1
  C  C6  1  0.85399200  0.32444100  0.42506400  1
  C  C7  1  0.35399200  0.17555900  0.57493600  1
  Ni  Ni8  1  0.77742000  0.46951000  0.07470500  1
  Ni  Ni9  1  0.27742000  0.03049000  0.92529500  1
  Ni  Ni10  1  0.22258000  0.53049000  0.92529500  1
  Ni  Ni11  1  0.72258000  0.96951000  0.07470500  1
  Ni  Ni12  1  0.86904800  0.91898300  0.68156300  1
  Ni  Ni13  1  0.36904800  0.58101700  0.31843700  1
  Ni  Ni14  1  0.13095200  0.08101700  0.31843700  1
  Ni  Ni15  1  0.63095200  0.41898300  0.68156300  1
  Cu  Cu16  1  0.58698300  0.14999000  0.38328500  1
  Cu  Cu17  1  0.08698300  0.35001000  0.61671500  1
  Cu  Cu18  1  0.41301700  0.85001000  0.61671500  1
  Cu  Cu19  1  0.91301700  0.64999000  0.38328500  1
