# generated using pymatgen
data_Cu20(NiC6)3
_symmetry_space_group_name_H-M   'P 1'
_cell_length_a   7.62421599
_cell_length_b   7.62421599
_cell_length_c   18.27382198
_cell_angle_alpha   80.74861162
_cell_angle_beta   80.74861162
_cell_angle_gamma   52.26730336
_symmetry_Int_Tables_number   1
_chemical_formula_structural   Cu20(NiC6)3
_chemical_formula_sum   'Cu40 Ni6 C36'
_cell_volume   826.51339588
_cell_formula_units_Z   2
loop_
 _symmetry_equiv_pos_site_id
 _symmetry_equiv_pos_as_xyz
  1  'x, y, z'
loop_
 _atom_site_type_symbol
 _atom_site_label
 _atom_site_symmetry_multiplicity
 _atom_site_fract_x
 _atom_site_fract_y
 _atom_site_fract_z
 _atom_site_occupancy
  C  C0  1  0.84448800  0.83613300  0.38862300  1
  C  C1  1  0.83613300  0.84448800  0.88862300  1
  C  C2  1  0.16386700  0.15551200  0.11137700  1
  C  C3  1  0.15551200  0.16386700  0.61137700  1
  C  C4  1  0.31415300  0.67573500  0.39232700  1
  C  C5  1  0.19526400  0.80172100  0.46571400  1
  C  C6  1  0.69308100  0.30291700  0.16011200  1
  C  C7  1  0.43665100  0.26341000  0.50510500  1
  C  C8  1  0.84581900  0.04199200  0.14658000  1
  C  C9  1  0.67573500  0.31415300  0.89232700  1
  C  C10  1  0.80172100  0.19526400  0.96571400  1
  C  C11  1  0.30291700  0.69308100  0.66011200  1
  C  C12  1  0.46003900  0.23904600  0.05062100  1
  C  C13  1  0.26341000  0.43665100  0.00510500  1
  C  C14  1  0.25816200  0.38483100  0.20128500  1
  C  C15  1  0.04199200  0.84581900  0.64658000  1
  C  C16  1  0.78117400  0.77062000  0.24144200  1
  C  C17  1  0.22938000  0.21882600  0.25855800  1
  C  C18  1  0.61516900  0.74183800  0.29871500  1
  C  C19  1  0.76095400  0.53996100  0.44937900  1
  C  C20  1  0.23904600  0.46003900  0.55062100  1
  C  C21  1  0.38483100  0.25816200  0.70128500  1
  C  C22  1  0.77062000  0.78117400  0.74144200  1
  C  C23  1  0.21882600  0.22938000  0.75855800  1
  C  C24  1  0.95800800  0.15418100  0.35342000  1
  C  C25  1  0.74183800  0.61516900  0.79871500  1
  C  C26  1  0.73659000  0.56334900  0.99489500  1
  C  C27  1  0.53996100  0.76095400  0.94937900  1
  C  C28  1  0.69708300  0.30691900  0.33988800  1
  C  C29  1  0.19827900  0.80473600  0.03428600  1
  C  C30  1  0.32426500  0.68584700  0.10767300  1
  C  C31  1  0.15418100  0.95800800  0.85342000  1
  C  C32  1  0.56334900  0.73659000  0.49489500  1
  C  C33  1  0.30691900  0.69708300  0.83988800  1
  C  C34  1  0.80473600  0.19827900  0.53428600  1
  C  C35  1  0.68584700  0.32426500  0.60767300  1
  Ni  Ni36  1  0.23388300  0.20798400  0.41200900  1
  Ni  Ni37  1  0.79201600  0.76611700  0.08799100  1
  Ni  Ni38  1  0.20798400  0.23388300  0.91200900  1
  Ni  Ni39  1  0.76611700  0.79201600  0.58799100  1
  Ni  Ni40  1  0.31613300  0.68386700  0.25000000  1
  Ni  Ni41  1  0.68386700  0.31613300  0.75000000  1
  Cu  Cu42  1  0.82108100  0.16156900  0.36155600  1
  Cu  Cu43  1  0.19041700  0.71923700  0.43158700  1
  Cu  Cu44  1  0.40682900  0.51849700  0.19367300  1
  Cu  Cu45  1  0.10596100  0.72879300  0.28712300  1
  Cu  Cu46  1  0.16156900  0.82108100  0.86155600  1
  Cu  Cu47  1  0.71923700  0.19041700  0.93158700  1
  Cu  Cu48  1  0.45678800  0.16144200  0.40281900  1
  Cu  Cu49  1  0.87873200  0.79357400  0.14860300  1
  Cu  Cu50  1  0.05836200  0.45153300  0.41290000  1
  Cu  Cu51  1  0.51849700  0.40682900  0.69367300  1
  Cu  Cu52  1  0.89931800  0.79120600  0.01475200  1
  Cu  Cu53  1  0.30393000  0.36945900  0.05585400  1
  Cu  Cu54  1  0.72879300  0.10596100  0.78712300  1
  Cu  Cu55  1  0.71322000  0.78770600  0.29329000  1
  Cu  Cu56  1  0.21229400  0.28678000  0.20671000  1
  Cu  Cu57  1  0.63054100  0.69607000  0.44414600  1
  Cu  Cu58  1  0.20879400  0.10068200  0.48524800  1
  Cu  Cu59  1  0.16144200  0.45678800  0.90281900  1
  Cu  Cu60  1  0.54846700  0.94163800  0.08710000  1
  Cu  Cu61  1  0.20642600  0.12126800  0.35139700  1
  Cu  Cu62  1  0.79357400  0.87873200  0.64860300  1
  Cu  Cu63  1  0.45153300  0.05836200  0.91290000  1
  Cu  Cu64  1  0.83855800  0.54321200  0.09718100  1
  Cu  Cu65  1  0.79120600  0.89931800  0.51475200  1
  Cu  Cu66  1  0.36945900  0.30393000  0.55585400  1
  Cu  Cu67  1  0.78770600  0.71322000  0.79329000  1
  Cu  Cu68  1  0.28678000  0.21229400  0.70671000  1
  Cu  Cu69  1  0.27120700  0.89403900  0.21287700  1
  Cu  Cu70  1  0.69607000  0.63054100  0.94414600  1
  Cu  Cu71  1  0.10068200  0.20879400  0.98524800  1
  Cu  Cu72  1  0.48150300  0.59317100  0.30632700  1
  Cu  Cu73  1  0.94163800  0.54846700  0.58710000  1
  Cu  Cu74  1  0.12126800  0.20642600  0.85139700  1
  Cu  Cu75  1  0.54321200  0.83855800  0.59718100  1
  Cu  Cu76  1  0.28076300  0.80958300  0.06841300  1
  Cu  Cu77  1  0.83843100  0.17891900  0.13844400  1
  Cu  Cu78  1  0.89403900  0.27120700  0.71287700  1
  Cu  Cu79  1  0.59317100  0.48150300  0.80632700  1
  Cu  Cu80  1  0.80958300  0.28076300  0.56841300  1
  Cu  Cu81  1  0.17891900  0.83843100  0.63844400  1
