# generated using pymatgen
data_Cu4NiC24
_symmetry_space_group_name_H-M   'P 1'
_cell_length_a   10.09216315
_cell_length_b   10.09216315
_cell_length_c   10.09216315
_cell_angle_alpha   60.00000000
_cell_angle_beta   60.00000000
_cell_angle_gamma   60.00000000
_symmetry_Int_Tables_number   1
_chemical_formula_structural   Cu4NiC24
_chemical_formula_sum   'Cu8 Ni2 C48'
_cell_volume   726.83827711
_cell_formula_units_Z   2
loop_
 _symmetry_equiv_pos_site_id
 _symmetry_equiv_pos_as_xyz
  1  'x, y, z'
loop_
 _atom_site_type_symbol
 _atom_site_label
 _atom_site_symmetry_multiplicity
 _atom_site_fract_x
 _atom_site_fract_y
 _atom_site_fract_z
 _atom_site_occupancy
  C  C0  1  0.96000000  0.96000000  0.54000000  1
  C  C1  1  0.71000000  0.29000000  0.29000000  1
  C  C2  1  0.96000000  0.54000000  0.96000000  1
  C  C3  1  0.54000000  0.96000000  0.54000000  1
  C  C4  1  0.71000000  0.71000000  0.29000000  1
  C  C5  1  0.29000000  0.71000000  0.71000000  1
  C  C6  1  0.54000000  0.54000000  0.96000000  1
  C  C7  1  0.96000000  0.54000000  0.54000000  1
  C  C8  1  0.29000000  0.71000000  0.29000000  1
  C  C9  1  0.71000000  0.29000000  0.71000000  1
  C  C10  1  0.54000000  0.96000000  0.96000000  1
  C  C11  1  0.29000000  0.29000000  0.71000000  1
  C  C12  1  0.12500000  0.62500000  0.12500000  1
  C  C13  1  0.12500000  0.12500000  0.62500000  1
  C  C14  1  0.12500000  0.12500000  0.12500000  1
  C  C15  1  0.62500000  0.12500000  0.12500000  1
  Ni  Ni16  1  0.75000000  0.75000000  0.75000000  1
  Ni  Ni17  1  0.50000000  0.50000000  0.50000000  1
  Cu  Cu18  1  0.34193700  0.97419000  0.34193700  1
  Cu  Cu19  1  0.34193700  0.34193700  0.97419000  1
  Cu  Cu20  1  0.97419000  0.34193700  0.34193700  1
  Cu  Cu21  1  0.34193700  0.34193700  0.34193700  1
  Cu  Cu22  1  0.90806300  0.90806300  0.90806300  1
  Cu  Cu23  1  0.27581000  0.90806300  0.90806300  1
  Cu  Cu24  1  0.90806300  0.90806300  0.27581000  1
  Cu  Cu25  1  0.90806300  0.27581000  0.90806300  1
  C  C26  1  0.93107700  0.02249400  0.27758200  1
  C  C27  1  0.76884600  0.27758200  0.02249400  1
  C  C28  1  0.22750600  0.97241800  0.31892300  1
  C  C29  1  0.31892300  0.97241800  0.48115400  1
  C  C30  1  0.68034300  0.68034300  0.68034300  1
  C  C31  1  0.97241800  0.31892300  0.22750600  1
  C  C32  1  0.97241800  0.22750600  0.48115400  1
  C  C33  1  0.68034300  0.68034300  0.95897000  1
  C  C34  1  0.95897000  0.68034300  0.68034300  1
  C  C35  1  0.48115400  0.31892300  0.97241800  1
  C  C36  1  0.22750600  0.48115400  0.97241800  1
  C  C37  1  0.68034300  0.95897000  0.68034300  1
  C  C38  1  0.48115400  0.22750600  0.31892300  1
  C  C39  1  0.97241800  0.48115400  0.31892300  1
  C  C40  1  0.22750600  0.31892300  0.48115400  1
  C  C41  1  0.93107700  0.76884600  0.02249400  1
  C  C42  1  0.31892300  0.48115400  0.22750600  1
  C  C43  1  0.02249400  0.93107700  0.76884600  1
  C  C44  1  0.27758200  0.76884600  0.93107700  1
  C  C45  1  0.76884600  0.02249400  0.93107700  1
  C  C46  1  0.56965700  0.29103000  0.56965700  1
  C  C47  1  0.02249400  0.76884600  0.27758200  1
  C  C48  1  0.76884600  0.93107700  0.27758200  1
  C  C49  1  0.29103000  0.56965700  0.56965700  1
  C  C50  1  0.56965700  0.56965700  0.29103000  1
  C  C51  1  0.27758200  0.02249400  0.76884600  1
  C  C52  1  0.27758200  0.93107700  0.02249400  1
  C  C53  1  0.56965700  0.56965700  0.56965700  1
  C  C54  1  0.93107700  0.27758200  0.76884600  1
  C  C55  1  0.02249400  0.27758200  0.93107700  1
  C  C56  1  0.48115400  0.97241800  0.22750600  1
  C  C57  1  0.31892300  0.22750600  0.97241800  1
