# generated using pymatgen
data_Cu9NiC4
_symmetry_space_group_name_H-M   'P 1'
_cell_length_a   4.96064200
_cell_length_b   11.68620100
_cell_length_c   12.84735300
_cell_angle_alpha   90.00000000
_cell_angle_beta   90.00000000
_cell_angle_gamma   90.00000000
_symmetry_Int_Tables_number   1
_chemical_formula_structural   Cu9NiC4
_chemical_formula_sum   'Cu36 Ni4 C16'
_cell_volume   744.77466519
_cell_formula_units_Z   4
loop_
 _symmetry_equiv_pos_site_id
 _symmetry_equiv_pos_as_xyz
  1  'x, y, z'
loop_
 _atom_site_type_symbol
 _atom_site_label
 _atom_site_symmetry_multiplicity
 _atom_site_fract_x
 _atom_site_fract_y
 _atom_site_fract_z
 _atom_site_occupancy
  C  C0  1  0.00000000  0.50000000  0.50000000  1
  C  C1  1  0.00000000  0.50000000  0.00000000  1
  C  C2  1  0.00000000  0.00000000  0.50000000  1
  C  C3  1  0.00000000  0.00000000  0.00000000  1
  C  C4  1  0.76010200  0.25000000  0.50000000  1
  C  C5  1  0.23989800  0.75000000  0.00000000  1
  C  C6  1  0.23989800  0.75000000  0.50000000  1
  C  C7  1  0.76010200  0.25000000  0.00000000  1
  C  C8  1  0.49086000  0.07758700  0.62990200  1
  C  C9  1  0.50914000  0.92241300  0.12990200  1
  C  C10  1  0.49086000  0.42241300  0.37009800  1
  C  C11  1  0.50914000  0.57758700  0.87009800  1
  C  C12  1  0.50914000  0.92241300  0.37009800  1
  C  C13  1  0.49086000  0.07758700  0.87009800  1
  C  C14  1  0.50914000  0.57758700  0.62990200  1
  C  C15  1  0.49086000  0.42241300  0.12990200  1
  Ni  Ni16  1  0.02327100  0.26383600  0.75000000  1
  Ni  Ni17  1  0.97672900  0.73616400  0.25000000  1
  Ni  Ni18  1  0.02327100  0.23616400  0.25000000  1
  Ni  Ni19  1  0.97672900  0.76383600  0.75000000  1
  Cu  Cu20  1  0.55739900  0.20458200  0.58833100  1
  Cu  Cu21  1  0.44260100  0.79541800  0.08833100  1
  Cu  Cu22  1  0.55739900  0.29541800  0.41166900  1
  Cu  Cu23  1  0.44260100  0.70458200  0.91166900  1
  Cu  Cu24  1  0.44260100  0.79541800  0.41166900  1
  Cu  Cu25  1  0.55739900  0.20458200  0.91166900  1
  Cu  Cu26  1  0.44260100  0.70458200  0.58833100  1
  Cu  Cu27  1  0.55739900  0.29541800  0.08833100  1
  Cu  Cu28  1  0.91712600  0.34827000  0.54576600  1
  Cu  Cu29  1  0.08287400  0.65173000  0.04576600  1
  Cu  Cu30  1  0.91712600  0.15173000  0.45423400  1
  Cu  Cu31  1  0.08287400  0.84827000  0.95423400  1
  Cu  Cu32  1  0.08287400  0.65173000  0.45423400  1
  Cu  Cu33  1  0.91712600  0.34827000  0.95423400  1
  Cu  Cu34  1  0.08287400  0.84827000  0.54576600  1
  Cu  Cu35  1  0.91712600  0.15173000  0.04576600  1
  Cu  Cu36  1  0.19155900  0.05604000  0.61989900  1
  Cu  Cu37  1  0.80844100  0.94396000  0.11989900  1
  Cu  Cu38  1  0.19155900  0.44396000  0.38010100  1
  Cu  Cu39  1  0.80844100  0.55604000  0.88010100  1
  Cu  Cu40  1  0.80844100  0.94396000  0.38010100  1
  Cu  Cu41  1  0.19155900  0.05604000  0.88010100  1
  Cu  Cu42  1  0.80844100  0.55604000  0.61989900  1
  Cu  Cu43  1  0.19155900  0.44396000  0.11989900  1
  Cu  Cu44  1  0.68171700  0.98941000  0.58519600  1
  Cu  Cu45  1  0.31828300  0.01059000  0.08519600  1
  Cu  Cu46  1  0.68171700  0.51059000  0.41480400  1
  Cu  Cu47  1  0.31828300  0.48941000  0.91480400  1
  Cu  Cu48  1  0.31828300  0.01059000  0.41480400  1
  Cu  Cu49  1  0.68171700  0.98941000  0.91480400  1
  Cu  Cu50  1  0.31828300  0.48941000  0.58519600  1
  Cu  Cu51  1  0.68171700  0.51059000  0.08519600  1
  Cu  Cu52  1  0.55659500  0.09356200  0.75000000  1
  Cu  Cu53  1  0.44340500  0.90643800  0.25000000  1
  Cu  Cu54  1  0.55659500  0.40643800  0.25000000  1
  Cu  Cu55  1  0.44340500  0.59356200  0.75000000  1
