# generated using pymatgen
data_Cu2NiC2
_symmetry_space_group_name_H-M   'P 1'
_cell_length_a   9.82996200
_cell_length_b   7.77369500
_cell_length_c   8.86961412
_cell_angle_alpha   73.96083126
_cell_angle_beta   90.00000000
_cell_angle_gamma   90.00000000
_symmetry_Int_Tables_number   1
_chemical_formula_structural   Cu2NiC2
_chemical_formula_sum   'Cu8 Ni4 C8'
_cell_volume   651.38905391
_cell_formula_units_Z   4
loop_
 _symmetry_equiv_pos_site_id
 _symmetry_equiv_pos_as_xyz
  1  'x, y, z'
loop_
 _atom_site_type_symbol
 _atom_site_label
 _atom_site_symmetry_multiplicity
 _atom_site_fract_x
 _atom_site_fract_y
 _atom_site_fract_z
 _atom_site_occupancy
  C  C0  1  0.66390800  0.39661000  0.47966100  1
  C  C1  1  0.16390800  0.10339000  0.52033900  1
  C  C2  1  0.33609200  0.60339000  0.52033900  1
  C  C3  1  0.83609200  0.89661000  0.47966100  1
  C  C4  1  0.86123900  0.75598600  0.99720400  1
  C  C5  1  0.36123900  0.74401400  0.00279600  1
  C  C6  1  0.13876100  0.24401400  0.00279600  1
  C  C7  1  0.63876100  0.25598600  0.99720400  1
  Ni  Ni8  1  0.46462700  0.02245100  0.35982700  1
  Ni  Ni9  1  0.03537300  0.52245100  0.35982700  1
  Ni  Ni10  1  0.53537300  0.97754900  0.64017300  1
  Ni  Ni11  1  0.96462700  0.47754900  0.64017300  1
  Cu  Cu12  1  0.59973500  0.66671300  0.75596100  1
  Cu  Cu13  1  0.39977200  0.16401300  0.76428200  1
  Cu  Cu14  1  0.60022800  0.83598700  0.23571800  1
  Cu  Cu15  1  0.10022800  0.66401300  0.76428200  1
  Cu  Cu16  1  0.09973500  0.83328700  0.24403900  1
  Cu  Cu17  1  0.40026500  0.33328700  0.24403900  1
  Cu  Cu18  1  0.90026500  0.16671300  0.75596100  1
  Cu  Cu19  1  0.89977200  0.33598700  0.23571800  1
