# generated using pymatgen
data_Cu3NiC
_symmetry_space_group_name_H-M   'P 1'
_cell_length_a   6.06739945
_cell_length_b   6.06742206
_cell_length_c   7.34592981
_cell_angle_alpha   97.81530306
_cell_angle_beta   97.81461866
_cell_angle_gamma   119.99367902
_symmetry_Int_Tables_number   1
_chemical_formula_structural   Cu3NiC
_chemical_formula_sum   'Cu6 Ni2 C2'
_cell_volume   225.38809955
_cell_formula_units_Z   2
loop_
 _symmetry_equiv_pos_site_id
 _symmetry_equiv_pos_as_xyz
  1  'x, y, z'
loop_
 _atom_site_type_symbol
 _atom_site_label
 _atom_site_symmetry_multiplicity
 _atom_site_fract_x
 _atom_site_fract_y
 _atom_site_fract_z
 _atom_site_occupancy
  C  C0  1  0.66723600  0.33272800  0.00000200  1
  C  C1  1  0.33280500  0.66720100  0.00000000  1
  Ni  Ni2  1  0.94846300  0.94847500  0.84391800  1
  Ni  Ni3  1  0.05152600  0.05153800  0.15607600  1
  Cu  Cu4  1  0.25084100  0.25084200  0.77184900  1
  Cu  Cu5  1  0.74915600  0.74917400  0.22815000  1
  Cu  Cu6  1  0.59925900  0.92497900  0.77158400  1
  Cu  Cu7  1  0.92494300  0.59927000  0.77157800  1
  Cu  Cu8  1  0.07504700  0.40075200  0.22842500  1
  Cu  Cu9  1  0.40072300  0.07504200  0.22841800  1
