# generated using pymatgen
data_Cu4NiC2
_symmetry_space_group_name_H-M   'P 1'
_cell_length_a   7.33776400
_cell_length_b   8.68569300
_cell_length_c   10.97715200
_cell_angle_alpha   90.00000000
_cell_angle_beta   90.00000000
_cell_angle_gamma   90.00000000
_symmetry_Int_Tables_number   1
_chemical_formula_structural   Cu4NiC2
_chemical_formula_sum   'Cu16 Ni4 C8'
_cell_volume   699.61303501
_cell_formula_units_Z   4
loop_
 _symmetry_equiv_pos_site_id
 _symmetry_equiv_pos_as_xyz
  1  'x, y, z'
loop_
 _atom_site_type_symbol
 _atom_site_label
 _atom_site_symmetry_multiplicity
 _atom_site_fract_x
 _atom_site_fract_y
 _atom_site_fract_z
 _atom_site_occupancy
  C  C0  1  0.37938700  0.49490800  0.19046800  1
  C  C1  1  0.12061300  0.00509200  0.69046800  1
  C  C2  1  0.62061300  0.99490800  0.80953200  1
  C  C3  1  0.87938700  0.50509200  0.30953200  1
  C  C4  1  0.62061300  0.50509200  0.80953200  1
  C  C5  1  0.87938700  0.99490800  0.30953200  1
  C  C6  1  0.37938700  0.00509200  0.19046800  1
  C  C7  1  0.12061300  0.49490800  0.69046800  1
  Ni  Ni8  1  0.38946100  0.75000000  0.46921600  1
  Ni  Ni9  1  0.11053900  0.75000000  0.96921600  1
  Ni  Ni10  1  0.61053900  0.25000000  0.53078400  1
  Ni  Ni11  1  0.88946100  0.25000000  0.03078400  1
  Cu  Cu12  1  0.60559900  0.75000000  0.30145500  1
  Cu  Cu13  1  0.89440100  0.75000000  0.80145500  1
  Cu  Cu14  1  0.39440100  0.25000000  0.69854500  1
  Cu  Cu15  1  0.10559900  0.25000000  0.19854500  1
  Cu  Cu16  1  0.40252500  0.75000000  0.68972900  1
  Cu  Cu17  1  0.09747500  0.75000000  0.18972900  1
  Cu  Cu18  1  0.59747500  0.25000000  0.31027100  1
  Cu  Cu19  1  0.90252500  0.25000000  0.81027100  1
  Cu  Cu20  1  0.22425600  0.51306300  0.43630000  1
  Cu  Cu21  1  0.27574400  0.98693700  0.93630000  1
  Cu  Cu22  1  0.77574400  0.01306300  0.56370000  1
  Cu  Cu23  1  0.72425600  0.48693700  0.06370000  1
  Cu  Cu24  1  0.77574400  0.48693700  0.56370000  1
  Cu  Cu25  1  0.72425600  0.01306300  0.06370000  1
  Cu  Cu26  1  0.22425600  0.98693700  0.43630000  1
  Cu  Cu27  1  0.27574400  0.51306300  0.93630000  1
