# generated using pymatgen
data_Cu9Ni2C57
_symmetry_space_group_name_H-M   'P 1'
_cell_length_a   12.52906080
_cell_length_b   12.52906080
_cell_length_c   12.52906080
_cell_angle_alpha   115.85766769
_cell_angle_beta   115.85766769
_cell_angle_gamma   97.33820144
_symmetry_Int_Tables_number   1
_chemical_formula_structural   Cu9Ni2C57
_chemical_formula_sum   'Cu18 Ni4 C114'
_cell_volume   1464.77391706
_cell_formula_units_Z   2
loop_
 _symmetry_equiv_pos_site_id
 _symmetry_equiv_pos_as_xyz
  1  'x, y, z'
loop_
 _atom_site_type_symbol
 _atom_site_label
 _atom_site_symmetry_multiplicity
 _atom_site_fract_x
 _atom_site_fract_y
 _atom_site_fract_z
 _atom_site_occupancy
  C  C0  1  0.00000000  0.00000000  0.00000000  1
  C  C1  1  0.75000000  0.25000000  0.50000000  1
  C  C2  1  0.80702600  0.09058000  0.10357000  1
  C  C3  1  0.82789200  0.05068000  0.22286300  1
  C  C4  1  0.92218300  0.19932000  0.27721200  1
  C  C5  1  0.79749800  0.33589000  0.02185700  1
  C  C6  1  0.95250200  0.47435800  0.03839100  1
  C  C7  1  0.76299000  0.15942000  0.21644600  1
  C  C8  1  0.69011800  0.27833000  0.04884500  1
  C  C9  1  0.90942000  0.01299000  0.71644600  1
  C  C10  1  0.84058000  0.05702600  0.60357000  1
  C  C11  1  0.27744400  0.18730800  0.00645700  1
  C  C12  1  0.74791000  0.65843400  0.00759900  1
  C  C13  1  0.80068000  0.07789200  0.72286300  1
  C  C14  1  0.94932000  0.17218300  0.77721200  1
  C  C15  1  0.35502900  0.07781700  0.27713700  1
  C  C16  1  0.39497100  0.17210800  0.22278800  1
  C  C17  1  0.52741800  0.46836900  0.06826000  1
  C  C18  1  0.56914900  0.06269200  0.59013600  1
  C  C19  1  0.34156600  0.34916400  0.08947600  1
  C  C20  1  0.93730800  0.52744400  0.50645700  1
  C  C21  1  0.81269200  0.81914900  0.09013600  1
  C  C22  1  0.53163100  0.59989100  0.05904900  1
  C  C23  1  0.45345600  0.23701000  0.39643000  1
  C  C24  1  0.29654400  0.19297400  0.28355400  1
  C  C25  1  0.68853600  0.60854100  0.33230700  1
  C  C26  1  0.93436900  0.93687900  0.39677300  1
  C  C27  1  0.81563100  0.71240400  0.50251000  1
  C  C28  1  0.94297400  0.54654400  0.78355400  1
  C  C29  1  0.39145900  0.72376700  0.07999500  1
  C  C30  1  0.68687900  0.18436900  0.89677300  1
  C  C31  1  0.06312100  0.45989400  0.99749000  1
  C  C32  1  0.92210800  0.64497100  0.72278800  1
  C  C33  1  0.72167000  0.77051500  0.41178800  1
  C  C34  1  0.08589000  0.04749800  0.52185700  1
  C  C35  1  0.66411000  0.68596700  0.46160900  1
  C  C36  1  0.52564200  0.56403300  0.47814300  1
  C  C37  1  0.22435800  0.20250200  0.53839100  1
  C  C38  1  0.39127400  0.47948500  0.45115500  1
  C  C39  1  0.35872600  0.30988200  0.58821200  1
  C  C40  1  0.82781700  0.60502900  0.77713700  1
  C  C41  1  0.46240400  0.06563100  0.00251000  1
  C  C42  1  0.28759600  0.79010600  0.10322700  1
  C  C43  1  0.64377200  0.31146400  0.92000500  1
  C  C44  1  0.10622800  0.52623300  0.16769300  1
  C  C45  1  0.98701000  0.70345600  0.89643000  1
  C  C46  1  0.54010600  0.53759600  0.60322700  1
  C  C47  1  0.20989400  0.31312100  0.49749000  1
  C  C48  1  0.05988200  0.60872600  0.08821200  1
  C  C49  1  0.27623300  0.35622800  0.66769300  1
  C  C50  1  0.47376700  0.64145900  0.57999500  1
  C  C51  1  0.20915800  0.65010900  0.43174000  1
  C  C52  1  0.54084200  0.47258200  0.94095100  1
  C  C53  1  0.02098800  0.43085100  0.49354300  1
  C  C54  1  0.72901200  0.72255600  0.90986400  1
  C  C55  1  0.25968900  0.25209000  0.91052400  1
  C  C56  1  0.49031100  0.90083600  0.49240100  1
  C  C57  1  0.47255600  0.97901200  0.40986400  1
  C  C58  1  0.00209000  0.50968900  0.41052400  1
  C  C59  1  0.40010900  0.45915800  0.93174000  1
  C  C60  1  0.34989100  0.78163100  0.55904900  1
  C  C61  1  0.22258200  0.79084200  0.44095100  1
  C  C62  1  0.09916400  0.59156600  0.58947600  1
  C  C63  1  0.65083600  0.74031100  0.99240100  1
  C  C64  1  0.18085100  0.27098800  0.99354300  1
  C  C65  1  0.40843400  0.99791000  0.50759900  1
  C  C66  1  0.21836900  0.77741800  0.56826000  1
  C  C67  1  0.06146400  0.89377200  0.42000500  1
  C  C68  1  0.52051500  0.97167000  0.91178800  1
  C  C69  1  0.22948500  0.64127400  0.95115500  1
  C  C70  1  0.35854100  0.93853600  0.83230700  1
  C  C71  1  0.43596700  0.91411000  0.96160900  1
  C  C72  1  0.31403300  0.77564200  0.97814300  1
  C  C73  1  0.02833000  0.94011800  0.54884500  1
  C  C74  1  0.99599600  0.22449500  0.05740200  1
  C  C75  1  0.58290600  0.02550500  0.27150100  1
  C  C76  1  0.97449500  0.24599600  0.55740200  1
  C  C77  1  0.06140600  0.00400400  0.22849900  1
  C  C78  1  0.68859400  0.41709400  0.44259800  1
  C  C79  1  0.75400400  0.31140600  0.72849900  1
  C  C80  1  0.77550500  0.83290600  0.77150100  1
  C  C81  1  0.16709400  0.93859400  0.94259800  1
  C  C82  1  0.60369700  0.32851400  0.22977900  1
  C  C83  1  0.62608200  0.39630300  0.72481700  1
  C  C84  1  0.12391800  0.34873500  0.27022100  1
  C  C85  1  0.67148600  0.90126500  0.27518300  1
  C  C86  1  0.14630300  0.87608200  0.22481700  1
  C  C87  1  0.09873500  0.37391800  0.77022100  1
  C  C88  1  0.65126500  0.92148600  0.77518300  1
  C  C89  1  0.07851400  0.85369700  0.72977900  1
  Ni  Ni90  1  0.87500000  0.61430400  0.23930400  1
  Ni  Ni91  1  0.38569600  0.62500000  0.26069600  1
  Ni  Ni92  1  0.36430400  0.12500000  0.73930400  1
  Ni  Ni93  1  0.37500000  0.63569600  0.76069600  1
  Cu  Cu94  1  0.83146500  0.12500000  0.20646500  1
  Cu  Cu95  1  0.87500000  0.08146500  0.70646500  1
  Cu  Cu96  1  0.26444700  0.26444700  0.00000000  1
  Cu  Cu97  1  0.50000000  0.50000000  0.00000000  1
  Cu  Cu98  1  0.73555300  0.73555300  0.00000000  1
  Cu  Cu99  1  0.37500000  0.16853500  0.29353500  1
  Cu  Cu100  1  0.72362600  0.69465600  0.42674000  1
  Cu  Cu101  1  0.30534400  0.73208400  0.02897000  1
  Cu  Cu102  1  0.91853500  0.62500000  0.79353500  1
  Cu  Cu103  1  0.70311400  0.27637400  0.97103000  1
  Cu  Cu104  1  0.04688600  0.51791600  0.07326000  1
  Cu  Cu105  1  0.48208400  0.55534400  0.52897000  1
  Cu  Cu106  1  0.26791600  0.29688600  0.57326000  1
  Cu  Cu107  1  0.01444700  0.51444700  0.50000000  1
  Cu  Cu108  1  0.48555300  0.98555300  0.50000000  1
  Cu  Cu109  1  0.25000000  0.75000000  0.50000000  1
  Cu  Cu110  1  0.02637400  0.95311400  0.47103000  1
  Cu  Cu111  1  0.44465600  0.97362600  0.92674000  1
  C  C112  1  0.69332000  0.28272200  0.19121000  1
  C  C113  1  0.48153000  0.21496400  0.15213200  1
  C  C114  1  0.57368000  0.42405300  0.19498100  1
  C  C115  1  0.68716800  0.03503600  0.76656600  1
  C  C116  1  0.57594700  0.77092800  0.14962700  1
  C  C117  1  0.25210900  0.34151200  0.30879000  1
  C  C118  1  0.49789100  0.30668000  0.58940300  1
  C  C119  1  0.96496400  0.73153000  0.65213200  1
  C  C120  1  0.78503600  0.93716800  0.26656600  1
  C  C121  1  0.07939700  0.31283200  0.34786800  1
  C  C122  1  0.67060300  0.51847000  0.73343400  1
  C  C123  1  0.71727800  0.90848800  0.41059700  1
  C  C124  1  0.62130100  0.42632000  0.85037300  1
  C  C125  1  0.12869900  0.47907200  0.30501900  1
  C  C126  1  0.05668000  0.74789100  0.08940300  1
  C  C127  1  0.26847000  0.92060300  0.23343400  1
  C  C128  1  0.22907200  0.37869900  0.80501900  1
  C  C129  1  0.52092800  0.82594700  0.64962700  1
  C  C130  1  0.17632000  0.87130100  0.35037300  1
  C  C131  1  0.06283200  0.32939700  0.84786800  1
  C  C132  1  0.09151200  0.50210900  0.80879000  1
  C  C133  1  0.65848800  0.96727800  0.91059700  1
  C  C134  1  0.17405300  0.82368000  0.69498100  1
  C  C135  1  0.03272200  0.94332000  0.69121000  1
