# generated using pymatgen
data_Cu3(NiC)2
_symmetry_space_group_name_H-M   'P 1'
_cell_length_a   9.31468626
_cell_length_b   9.31468626
_cell_length_c   5.62595200
_cell_angle_alpha   90.00000000
_cell_angle_beta   90.00000000
_cell_angle_gamma   120.00000182
_symmetry_Int_Tables_number   1
_chemical_formula_structural   Cu3(NiC)2
_chemical_formula_sum   'Cu18 Ni12 C12'
_cell_volume   422.73003809
_cell_formula_units_Z   6
loop_
 _symmetry_equiv_pos_site_id
 _symmetry_equiv_pos_as_xyz
  1  'x, y, z'
loop_
 _atom_site_type_symbol
 _atom_site_label
 _atom_site_symmetry_multiplicity
 _atom_site_fract_x
 _atom_site_fract_y
 _atom_site_fract_z
 _atom_site_occupancy
  C  C0  1  0.33333300  0.66666700  0.00000000  1
  C  C1  1  0.00000000  0.00000000  0.00000000  1
  C  C2  1  0.00000000  0.00000000  0.50000000  1
  C  C3  1  0.33333300  0.66666700  0.50000000  1
  C  C4  1  0.66666700  0.33333300  0.00000000  1
  C  C5  1  0.66666700  0.33333300  0.50000000  1
  Ni  Ni6  1  0.09839700  0.81040300  0.75000000  1
  Ni  Ni7  1  0.18959700  0.90160300  0.25000000  1
  Ni  Ni8  1  0.09839700  0.28799400  0.25000000  1
  Ni  Ni9  1  0.18959700  0.28799400  0.75000000  1
  Ni  Ni10  1  0.28799400  0.18959700  0.75000000  1
  Ni  Ni11  1  0.28799400  0.09839700  0.25000000  1
  Ni  Ni12  1  0.71200600  0.90160300  0.75000000  1
  Ni  Ni13  1  0.71200600  0.81040300  0.25000000  1
  Ni  Ni14  1  0.81040300  0.71200600  0.25000000  1
  Ni  Ni15  1  0.90160300  0.71200600  0.75000000  1
  Ni  Ni16  1  0.81040300  0.09839700  0.75000000  1
  Ni  Ni17  1  0.90160300  0.18959700  0.25000000  1
  Cu  Cu18  1  0.00000000  0.59274600  0.25000000  1
  Cu  Cu19  1  0.00000000  0.40725400  0.75000000  1
  Cu  Cu20  1  0.14681200  0.66874400  0.25000000  1
  Cu  Cu21  1  0.33125600  0.85318800  0.75000000  1
  Cu  Cu22  1  0.14681200  0.47806800  0.75000000  1
  Cu  Cu23  1  0.33125600  0.47806800  0.25000000  1
  Cu  Cu24  1  0.52193200  0.85318800  0.25000000  1
  Cu  Cu25  1  0.52193200  0.66874400  0.75000000  1
  Cu  Cu26  1  0.40725400  0.40725400  0.25000000  1
  Cu  Cu27  1  0.59274600  0.59274600  0.75000000  1
  Cu  Cu28  1  0.47806800  0.33125600  0.25000000  1
  Cu  Cu29  1  0.47806800  0.14681200  0.75000000  1
  Cu  Cu30  1  0.66874400  0.52193200  0.75000000  1
  Cu  Cu31  1  0.40725400  0.00000000  0.75000000  1
  Cu  Cu32  1  0.59274600  0.00000000  0.25000000  1
  Cu  Cu33  1  0.85318800  0.52193200  0.25000000  1
  Cu  Cu34  1  0.66874400  0.14681200  0.25000000  1
  Cu  Cu35  1  0.85318800  0.33125600  0.75000000  1
  C  C36  1  0.00000000  0.82404200  0.75000000  1
  C  C37  1  0.00000000  0.17595800  0.25000000  1
  C  C38  1  0.17595800  0.17595800  0.75000000  1
  C  C39  1  0.17595800  0.00000000  0.25000000  1
  C  C40  1  0.82404200  0.82404200  0.25000000  1
  C  C41  1  0.82404200  0.00000000  0.75000000  1
