# generated using pymatgen
data_Cu5Ni3C4
_symmetry_space_group_name_H-M   'P 1'
_cell_length_a   4.82675300
_cell_length_b   5.74668996
_cell_length_c   10.49134741
_cell_angle_alpha   95.37103439
_cell_angle_beta   90.68016442
_cell_angle_gamma   92.84579415
_symmetry_Int_Tables_number   1
_chemical_formula_structural   Cu5Ni3C4
_chemical_formula_sum   'Cu10 Ni6 C8'
_cell_volume   289.33252934
_cell_formula_units_Z   2
loop_
 _symmetry_equiv_pos_site_id
 _symmetry_equiv_pos_as_xyz
  1  'x, y, z'
loop_
 _atom_site_type_symbol
 _atom_site_label
 _atom_site_symmetry_multiplicity
 _atom_site_fract_x
 _atom_site_fract_y
 _atom_site_fract_z
 _atom_site_occupancy
  C  C0  1  0.50000000  0.50000000  0.50000000  1
  C  C1  1  0.50000000  0.00000000  0.00000000  1
  C  C2  1  0.42308400  0.25547300  0.74762600  1
  C  C3  1  0.57691600  0.74452700  0.25237400  1
  C  C4  1  0.00000000  0.50000000  0.00000000  1
  C  C5  1  0.96974300  0.25533900  0.23940700  1
  C  C6  1  0.00000000  0.00000000  0.50000000  1
  C  C7  1  0.03025700  0.74466100  0.76059300  1
  Ni  Ni8  1  0.80804000  0.51355000  0.17319700  1
  Ni  Ni9  1  0.69777600  0.01872900  0.16586800  1
  Ni  Ni10  1  0.70422700  0.78269100  0.42625300  1
  Ni  Ni11  1  0.30222400  0.98127100  0.83413200  1
  Ni  Ni12  1  0.29577300  0.21730900  0.57374700  1
  Ni  Ni13  1  0.19196000  0.48645000  0.82680300  1
  Cu  Cu14  1  0.81714600  0.27106800  0.41931600  1
  Cu  Cu15  1  0.81662900  0.00500500  0.67619900  1
  Cu  Cu16  1  0.79137700  0.78581900  0.92124200  1
  Cu  Cu17  1  0.68955400  0.26769900  0.91805200  1
  Cu  Cu18  1  0.70238200  0.51676200  0.68711400  1
  Cu  Cu19  1  0.29761800  0.48323800  0.31288600  1
  Cu  Cu20  1  0.31044600  0.73230100  0.08194800  1
  Cu  Cu21  1  0.18285400  0.72893200  0.58068400  1
  Cu  Cu22  1  0.20862300  0.21418100  0.07875800  1
  Cu  Cu23  1  0.18337100  0.99499500  0.32380100  1
