# generated using pymatgen
data_Cu5Ni7C4
_symmetry_space_group_name_H-M   'P 1'
_cell_length_a   5.28055800
_cell_length_b   5.28777476
_cell_length_c   9.03957084
_cell_angle_alpha   106.33478305
_cell_angle_beta   89.15866426
_cell_angle_gamma   119.20607018
_symmetry_Int_Tables_number   1
_chemical_formula_structural   Cu5Ni7C4
_chemical_formula_sum   'Cu5 Ni7 C4'
_cell_volume   209.14986242
_cell_formula_units_Z   1
loop_
 _symmetry_equiv_pos_site_id
 _symmetry_equiv_pos_as_xyz
  1  'x, y, z'
loop_
 _atom_site_type_symbol
 _atom_site_label
 _atom_site_symmetry_multiplicity
 _atom_site_fract_x
 _atom_site_fract_y
 _atom_site_fract_z
 _atom_site_occupancy
  C  C0  1  0.31522300  0.00470000  0.75667100  1
  C  C1  1  0.54180900  0.97118500  0.52212500  1
  C  C2  1  0.72632300  0.00675300  0.25876600  1
  C  C3  1  0.03582100  0.96699200  0.01701500  1
  Ni  Ni4  1  0.43240500  0.50257000  0.62167900  1
  Ni  Ni5  1  0.59100000  0.94819100  0.90219800  1
  Ni  Ni6  1  0.57824800  0.07435500  0.33549500  1
  Ni  Ni7  1  0.40924300  0.93697100  0.65789200  1
  Ni  Ni8  1  0.39728700  0.07688100  0.08252800  1
  Ni  Ni9  1  0.94226200  0.51579800  0.11899100  1
  Ni  Ni10  1  0.89426900  0.06118000  0.58844700  1
  Cu  Cu11  1  0.06627600  0.90637500  0.40815200  1
  Cu  Cu12  1  0.08535700  0.09034100  0.83261800  1
  Cu  Cu13  1  0.05491700  0.51852900  0.87324600  1
  Cu  Cu14  1  0.52834900  0.48290600  0.37091400  1
  Cu  Cu15  1  0.90121100  0.93627000  0.15326300  1
