# generated using pymatgen
data_Cu7NiC5
_symmetry_space_group_name_H-M   'P 1'
_cell_length_a   4.98557300
_cell_length_b   8.51075496
_cell_length_c   13.24247694
_cell_angle_alpha   89.11612858
_cell_angle_beta   89.66231039
_cell_angle_gamma   85.07392818
_symmetry_Int_Tables_number   1
_chemical_formula_structural   Cu7NiC5
_chemical_formula_sum   'Cu28 Ni4 C20'
_cell_volume   559.74346656
_cell_formula_units_Z   4
loop_
 _symmetry_equiv_pos_site_id
 _symmetry_equiv_pos_as_xyz
  1  'x, y, z'
loop_
 _atom_site_type_symbol
 _atom_site_label
 _atom_site_symmetry_multiplicity
 _atom_site_fract_x
 _atom_site_fract_y
 _atom_site_fract_z
 _atom_site_occupancy
  C  C0  1  0.77240700  0.09707600  0.87235300  1
  C  C1  1  0.77392400  0.10090600  0.36992300  1
  C  C2  1  0.24844300  0.28099500  0.48099700  1
  C  C3  1  0.25401400  0.27749500  0.75783800  1
  C  C4  1  0.23379200  0.28701700  0.26394600  1
  C  C5  1  0.77479900  0.35325700  0.13368700  1
  C  C6  1  0.75351600  0.71774500  0.02197900  1
  C  C7  1  0.75037200  0.71594900  0.73268300  1
  C  C8  1  0.74519600  0.72072000  0.50941400  1
  C  C9  1  0.74975900  0.71708500  0.23483500  1
  C  C10  1  0.22558500  0.90103600  0.62238800  1
  C  C11  1  0.23548500  0.89496400  0.13003000  1
  C  C12  1  0.24329500  0.25985400  0.00755200  1
  C  C13  1  0.79044800  0.32789000  0.62440900  1
  C  C14  1  0.20542300  0.66952500  0.87515900  1
  C  C15  1  0.20723700  0.67121600  0.37479100  1
  C  C16  1  0.72123200  0.41024200  0.87709600  1
  C  C17  1  0.72090100  0.40908100  0.37304100  1
  C  C18  1  0.27839200  0.58921900  0.62508300  1
  C  C19  1  0.27923700  0.58857800  0.12586100  1
  Ni  Ni20  1  0.69159300  0.03451200  0.62629400  1
  Ni  Ni21  1  0.71633400  0.04117900  0.11730000  1
  Ni  Ni22  1  0.30719000  0.96522400  0.37497500  1
  Ni  Ni23  1  0.30506400  0.96221200  0.87439600  1
  Cu  Cu24  1  0.96756900  0.06895000  0.11293500  1
  Cu  Cu25  1  0.93860400  0.07259100  0.62710500  1
  Cu  Cu26  1  0.36154700  0.10967000  0.87772000  1
  Cu  Cu27  1  0.36417100  0.11035800  0.37385700  1
  Cu  Cu28  1  0.49930100  0.14856200  0.62750000  1
  Cu  Cu29  1  0.52979000  0.15757500  0.11561600  1
  Cu  Cu30  1  0.82768400  0.30689600  0.46576000  1
  Cu  Cu31  1  0.83304100  0.31268800  0.96925000  1
  Cu  Cu32  1  0.81379200  0.30703300  0.78506200  1
  Cu  Cu33  1  0.82016700  0.30916000  0.28165900  1
  Cu  Cu34  1  0.17609500  0.42287400  0.62755100  1
  Cu  Cu35  1  0.17380600  0.42234500  0.12983200  1
  Cu  Cu36  1  0.40536200  0.43156100  0.37613000  1
  Cu  Cu37  1  0.40386700  0.42597300  0.88508100  1
  Cu  Cu38  1  0.59303200  0.56822600  0.62444700  1
  Cu  Cu39  1  0.59113700  0.57355000  0.12476400  1
  Cu  Cu40  1  0.81617500  0.57787300  0.87085500  1
  Cu  Cu41  1  0.82216500  0.57642500  0.37365100  1
  Cu  Cu42  1  0.17168600  0.69234600  0.53379500  1
  Cu  Cu43  1  0.17519100  0.69161900  0.71616400  1
  Cu  Cu44  1  0.17019500  0.69152100  0.21580000  1
  Cu  Cu45  1  0.16700900  0.68914100  0.03342700  1
  Cu  Cu46  1  0.49812900  0.85085100  0.87244900  1
  Cu  Cu47  1  0.49874100  0.85021900  0.37685500  1
  Cu  Cu48  1  0.63506100  0.88882400  0.62441200  1
  Cu  Cu49  1  0.64480000  0.89689900  0.12533600  1
  Cu  Cu50  1  0.05858100  0.92602700  0.87317400  1
  Cu  Cu51  1  0.05966000  0.92726400  0.37377900  1
