# generated using pymatgen
data_Cu8Ni2C17
_symmetry_space_group_name_H-M   'P 1'
_cell_length_a   8.40474200
_cell_length_b   6.68415970
_cell_length_c   6.55543951
_cell_angle_alpha   90.66018525
_cell_angle_beta   95.00574496
_cell_angle_gamma   104.32271008
_symmetry_Int_Tables_number   1
_chemical_formula_structural   Cu8Ni2C17
_chemical_formula_sum   'Cu8 Ni2 C17'
_cell_volume   355.25869407
_cell_formula_units_Z   1
loop_
 _symmetry_equiv_pos_site_id
 _symmetry_equiv_pos_as_xyz
  1  'x, y, z'
loop_
 _atom_site_type_symbol
 _atom_site_label
 _atom_site_symmetry_multiplicity
 _atom_site_fract_x
 _atom_site_fract_y
 _atom_site_fract_z
 _atom_site_occupancy
  C  C0  1  0.00000000  0.00000000  0.00000000  1
  C  C1  1  0.24493400  0.10823200  0.38885200  1
  C  C2  1  0.75506600  0.89176800  0.61114800  1
  Ni  Ni3  1  0.62997100  0.90512000  0.15937800  1
  Ni  Ni4  1  0.37002900  0.09488000  0.84062200  1
  Cu  Cu5  1  0.54788900  0.21513500  0.12249500  1
  Cu  Cu6  1  0.85146200  0.20539000  0.74016600  1
  Cu  Cu7  1  0.45775300  0.63572900  0.33630000  1
  Cu  Cu8  1  0.79420500  0.46961500  0.90133400  1
  Cu  Cu9  1  0.20579500  0.53038500  0.09866600  1
  Cu  Cu10  1  0.54224700  0.36427100  0.66370000  1
  Cu  Cu11  1  0.45211100  0.78486500  0.87750500  1
  Cu  Cu12  1  0.14853800  0.79461000  0.25983400  1
  C  C13  1  0.50428400  0.05735500  0.26895300  1
  C  C14  1  0.34657000  0.55457100  0.35949700  1
  C  C15  1  0.53649700  0.23425600  0.98260600  1
  C  C16  1  0.17501500  0.58900100  0.23973800  1
  C  C17  1  0.09088100  0.90368900  0.29567600  1
  C  C18  1  0.87725300  0.79199200  0.76100500  1
  C  C19  1  0.33781600  0.19268600  0.66687600  1
  C  C20  1  0.12274700  0.20800800  0.23899500  1
  C  C21  1  0.82498500  0.41099900  0.76026200  1
  C  C22  1  0.46350300  0.76574400  0.01739400  1
  C  C23  1  0.65343000  0.44542900  0.64050300  1
  C  C24  1  0.66218400  0.80731400  0.33312400  1
  C  C25  1  0.90911900  0.09631100  0.70432400  1
  C  C26  1  0.49571600  0.94264500  0.73104700  1
