# generated using pymatgen
data_Cu9NiC51
_symmetry_space_group_name_H-M   'P 1'
_cell_length_a   10.15639579
_cell_length_b   10.15639579
_cell_length_c   9.90256916
_cell_angle_alpha   79.14377329
_cell_angle_beta   79.14377329
_cell_angle_gamma   50.93822972
_symmetry_Int_Tables_number   1
_chemical_formula_structural   Cu9NiC51
_chemical_formula_sum   'Cu9 Ni1 C51'
_cell_volume   775.68898648
_cell_formula_units_Z   1
loop_
 _symmetry_equiv_pos_site_id
 _symmetry_equiv_pos_as_xyz
  1  'x, y, z'
loop_
 _atom_site_type_symbol
 _atom_site_label
 _atom_site_symmetry_multiplicity
 _atom_site_fract_x
 _atom_site_fract_y
 _atom_site_fract_z
 _atom_site_occupancy
  Ni  Ni0  1  0.00000000  0.00000000  0.00000000  1
  Cu  Cu1  1  0.61771300  0.07259700  0.20235300  1
  Cu  Cu2  1  0.92740300  0.38228700  0.79764700  1
  Cu  Cu3  1  0.38228700  0.92740300  0.79764700  1
  Cu  Cu4  1  0.07259700  0.61771300  0.20235300  1
  Cu  Cu5  1  0.29808200  0.29808200  0.53402200  1
  Cu  Cu6  1  0.70191800  0.70191800  0.46597800  1
  Cu  Cu7  1  0.69204100  0.69204100  0.06692500  1
  Cu  Cu8  1  0.30795900  0.30795900  0.93307500  1
  Cu  Cu9  1  0.50000000  0.50000000  0.00000000  1
  C  C10  1  0.73815900  0.06200000  0.82938300  1
  C  C11  1  0.93800000  0.26184100  0.17061700  1
  C  C12  1  0.26184100  0.93800000  0.17061700  1
  C  C13  1  0.06200000  0.73815900  0.82938300  1
  C  C14  1  0.78897800  0.78897800  0.74548800  1
  C  C15  1  0.21102200  0.21102200  0.25451200  1
  C  C16  1  0.72970800  0.04645000  0.55143700  1
  C  C17  1  0.95355000  0.27029200  0.44856300  1
  C  C18  1  0.27029200  0.95355000  0.44856300  1
  C  C19  1  0.04645000  0.72970800  0.55143700  1
  C  C20  1  0.99039000  0.99039000  0.35603400  1
  C  C21  1  0.00961000  0.00961000  0.64396600  1
  C  C22  1  0.31716100  0.68619500  0.35599800  1
  C  C23  1  0.31380500  0.68283900  0.64400200  1
  C  C24  1  0.68283900  0.31380500  0.64400200  1
  C  C25  1  0.68619500  0.31716100  0.35599800  1
  C  C26  1  0.50000000  0.50000000  0.50000000  1
  C  C27  1  0.56007500  0.20608400  0.40521900  1
  C  C28  1  0.79391600  0.43992500  0.59478100  1
  C  C29  1  0.43992500  0.79391600  0.59478100  1
  C  C30  1  0.20608400  0.56007500  0.40521900  1
  C  C31  1  0.89798600  0.89798600  0.98673200  1
  C  C32  1  0.10201400  0.10201400  0.01326800  1
  C  C33  1  0.49389400  0.49389400  0.23329400  1
  C  C34  1  0.50610600  0.50610600  0.76670600  1
  C  C35  1  0.54164600  0.22200700  0.69303400  1
  C  C36  1  0.77799300  0.45835400  0.30696600  1
  C  C37  1  0.45835400  0.77799300  0.30696600  1
  C  C38  1  0.22200700  0.54164600  0.69303400  1
  C  C39  1  0.60650700  0.93443600  0.60738300  1
  C  C40  1  0.06556400  0.39349300  0.39261700  1
  C  C41  1  0.39349300  0.06556400  0.39261700  1
  C  C42  1  0.93443600  0.60650700  0.60738300  1
  C  C43  1  0.77663100  0.42523200  0.01959700  1
  C  C44  1  0.57476800  0.22336900  0.98040300  1
  C  C45  1  0.22336900  0.57476800  0.98040300  1
  C  C46  1  0.42523200  0.77663100  0.01959700  1
  C  C47  1  0.67518200  0.67518200  0.81125900  1
  C  C48  1  0.32481800  0.32481800  0.18874100  1
  C  C49  1  0.61642300  0.94754500  0.88782900  1
  C  C50  1  0.05245500  0.38357700  0.11217100  1
  C  C51  1  0.38357700  0.05245500  0.11217100  1
  C  C52  1  0.94754500  0.61642300  0.88782900  1
  C  C53  1  0.76869100  0.76869100  0.23191700  1
  C  C54  1  0.23130900  0.23130900  0.76808300  1
  C  C55  1  0.87321400  0.87321400  0.39813900  1
  C  C56  1  0.12678600  0.12678600  0.60186100  1
  C  C57  1  0.85622400  0.18261300  0.79842800  1
  C  C58  1  0.81738700  0.14377600  0.20157200  1
  C  C59  1  0.14377600  0.81738700  0.20157200  1
  C  C60  1  0.18261300  0.85622400  0.79842800  1
