# generated using pymatgen
data_Cu7NiC5
_symmetry_space_group_name_H-M   'P 1'
_cell_length_a   8.74827400
_cell_length_b   9.35892000
_cell_length_c   11.15198045
_cell_angle_alpha   78.67518340
_cell_angle_beta   90.00000000
_cell_angle_gamma   90.00000000
_symmetry_Int_Tables_number   1
_chemical_formula_structural   Cu7NiC5
_chemical_formula_sum   'Cu28 Ni4 C20'
_cell_volume   895.28408086
_cell_formula_units_Z   4
loop_
 _symmetry_equiv_pos_site_id
 _symmetry_equiv_pos_as_xyz
  1  'x, y, z'
loop_
 _atom_site_type_symbol
 _atom_site_label
 _atom_site_symmetry_multiplicity
 _atom_site_fract_x
 _atom_site_fract_y
 _atom_site_fract_z
 _atom_site_occupancy
  C  C0  1  0.97590800  0.58352100  0.69689900  1
  C  C1  1  0.47590800  0.41647900  0.80310100  1
  C  C2  1  0.02409200  0.41647900  0.30310100  1
  C  C3  1  0.52409200  0.58352100  0.19689900  1
  C  C4  1  0.95325300  0.07857200  0.64813100  1
  C  C5  1  0.45325300  0.92142800  0.85186900  1
  C  C6  1  0.04674700  0.92142800  0.35186900  1
  C  C7  1  0.54674700  0.07857200  0.14813100  1
  C  C8  1  0.60549000  0.80979200  0.51133800  1
  C  C9  1  0.10549000  0.19020800  0.98866200  1
  C  C10  1  0.39451000  0.19020800  0.48866200  1
  C  C11  1  0.89451000  0.80979200  0.01133800  1
  Ni  Ni12  1  0.27444300  0.57173000  0.49387300  1
  Ni  Ni13  1  0.77444300  0.42827000  0.00612700  1
  Ni  Ni14  1  0.72555700  0.42827000  0.50612700  1
  Ni  Ni15  1  0.22555700  0.57173000  0.99387300  1
  Cu  Cu16  1  0.54756400  0.76694600  0.67063000  1
  Cu  Cu17  1  0.04756400  0.23305400  0.82937000  1
  Cu  Cu18  1  0.45243600  0.23305400  0.32937000  1
  Cu  Cu19  1  0.95243600  0.76694600  0.17063000  1
  Cu  Cu20  1  0.65799700  0.85429800  0.34964800  1
  Cu  Cu21  1  0.15799700  0.14570200  0.15035200  1
  Cu  Cu22  1  0.34200300  0.14570200  0.65035200  1
  Cu  Cu23  1  0.84200300  0.85429800  0.84964800  1
  Cu  Cu24  1  0.41354500  0.65858800  0.44119300  1
  Cu  Cu25  1  0.91354500  0.34141200  0.05880700  1
  Cu  Cu26  1  0.58645500  0.34141200  0.55880700  1
  Cu  Cu27  1  0.08645500  0.65858800  0.94119300  1
  Cu  Cu28  1  0.13381100  0.64510600  0.44309400  1
  Cu  Cu29  1  0.63381100  0.35489400  0.05690600  1
  Cu  Cu30  1  0.86618900  0.35489400  0.55690600  1
  Cu  Cu31  1  0.36618900  0.64510600  0.94309400  1
  Cu  Cu32  1  0.28557500  0.42802800  0.45156400  1
  Cu  Cu33  1  0.78557500  0.57197200  0.04843600  1
  Cu  Cu34  1  0.71442500  0.57197200  0.54843600  1
  Cu  Cu35  1  0.21442500  0.42802800  0.95156400  1
  Cu  Cu36  1  0.27664400  0.54651600  0.62834900  1
  Cu  Cu37  1  0.77664400  0.45348400  0.87165100  1
  Cu  Cu38  1  0.72335600  0.45348400  0.37165100  1
  Cu  Cu39  1  0.22335600  0.54651600  0.12834900  1
  Cu  Cu40  1  0.68848200  0.16075600  0.78831900  1
  Cu  Cu41  1  0.18848200  0.83924400  0.71168100  1
  Cu  Cu42  1  0.31151800  0.83924400  0.21168100  1
  Cu  Cu43  1  0.81151800  0.16075600  0.28831900  1
  C  C44  1  0.62489800  0.05298000  0.52987000  1
  C  C45  1  0.12489800  0.94702000  0.97013000  1
  C  C46  1  0.37510200  0.94702000  0.47013000  1
  C  C47  1  0.87510200  0.05298000  0.02987000  1
  C  C48  1  0.84855300  0.84525200  0.55457600  1
  C  C49  1  0.34855300  0.15474800  0.94542400  1
  C  C50  1  0.15144700  0.15474800  0.44542400  1
  C  C51  1  0.65144700  0.84525200  0.05457600  1
