# generated using pymatgen
data_CuNiC7
_symmetry_space_group_name_H-M   'P 1'
_cell_length_a   6.66344300
_cell_length_b   6.66344300
_cell_length_c   6.66344300
_cell_angle_alpha   90.00000000
_cell_angle_beta   90.00000000
_cell_angle_gamma   90.00000000
_symmetry_Int_Tables_number   1
_chemical_formula_structural   CuNiC7
_chemical_formula_sum   'Cu4 Ni4 C28'
_cell_volume   295.86668188
_cell_formula_units_Z   4
loop_
 _symmetry_equiv_pos_site_id
 _symmetry_equiv_pos_as_xyz
  1  'x, y, z'
loop_
 _atom_site_type_symbol
 _atom_site_label
 _atom_site_symmetry_multiplicity
 _atom_site_fract_x
 _atom_site_fract_y
 _atom_site_fract_z
 _atom_site_occupancy
  C  C0  1  0.00000000  0.00000000  0.50000000  1
  C  C1  1  0.00000000  0.50000000  0.00000000  1
  C  C2  1  0.50000000  0.00000000  0.00000000  1
  C  C3  1  0.00000000  0.00000000  0.00000000  1
  Ni  Ni4  1  0.50000000  0.50000000  0.50000000  1
  Ni  Ni5  1  0.00000000  0.50000000  0.50000000  1
  Ni  Ni6  1  0.50000000  0.00000000  0.50000000  1
  Ni  Ni7  1  0.50000000  0.50000000  0.00000000  1
  C  C8  1  0.75240900  0.75240900  0.50718900  1
  C  C9  1  0.24759100  0.24759100  0.50718900  1
  C  C10  1  0.00652700  0.75038400  0.75038400  1
  C  C11  1  0.24961600  0.99347300  0.75038400  1
  C  C12  1  0.75038400  0.00652700  0.75038400  1
  C  C13  1  0.99347300  0.24961600  0.75038400  1
  C  C14  1  0.75240900  0.50718900  0.75240900  1
  C  C15  1  0.50718900  0.75240900  0.75240900  1
  C  C16  1  0.49281100  0.24759100  0.75240900  1
  C  C17  1  0.24759100  0.49281100  0.75240900  1
  C  C18  1  0.24961600  0.75038400  0.99347300  1
  C  C19  1  0.75038400  0.24961600  0.99347300  1
  C  C20  1  0.75038400  0.75038400  0.00652700  1
  C  C21  1  0.24961600  0.24961600  0.00652700  1
  C  C22  1  0.24759100  0.50718900  0.24759100  1
  C  C23  1  0.49281100  0.75240900  0.24759100  1
  C  C24  1  0.50718900  0.24759100  0.24759100  1
  C  C25  1  0.75240900  0.49281100  0.24759100  1
  C  C26  1  0.99347300  0.75038400  0.24961600  1
  C  C27  1  0.75038400  0.99347300  0.24961600  1
  C  C28  1  0.24961600  0.00652700  0.24961600  1
  C  C29  1  0.00652700  0.24961600  0.24961600  1
  C  C30  1  0.24759100  0.75240900  0.49281100  1
  C  C31  1  0.75240900  0.24759100  0.49281100  1
  Cu  Cu32  1  0.25679100  0.74320900  0.74320900  1
  Cu  Cu33  1  0.74320900  0.25679100  0.74320900  1
  Cu  Cu34  1  0.74320900  0.74320900  0.25679100  1
  Cu  Cu35  1  0.25679100  0.25679100  0.25679100  1
