# generated using pymatgen
data_Cu8NiC6
_symmetry_space_group_name_H-M   'P 1'
_cell_length_a   8.89966953
_cell_length_b   8.89966953
_cell_length_c   10.67449053
_cell_angle_alpha   85.71374648
_cell_angle_beta   85.71374648
_cell_angle_gamma   62.26936571
_symmetry_Int_Tables_number   1
_chemical_formula_structural   Cu8NiC6
_chemical_formula_sum   'Cu32 Ni4 C24'
_cell_volume   745.49954626
_cell_formula_units_Z   4
loop_
 _symmetry_equiv_pos_site_id
 _symmetry_equiv_pos_as_xyz
  1  'x, y, z'
loop_
 _atom_site_type_symbol
 _atom_site_label
 _atom_site_symmetry_multiplicity
 _atom_site_fract_x
 _atom_site_fract_y
 _atom_site_fract_z
 _atom_site_occupancy
  C  C0  1  0.67040600  0.67538300  0.70814100  1
  C  C1  1  0.67538300  0.67040600  0.20814100  1
  C  C2  1  0.00875600  0.00045600  0.49513500  1
  C  C3  1  0.00045600  0.00875600  0.99513500  1
  C  C4  1  0.35218800  0.32406700  0.79722300  1
  C  C5  1  0.32406700  0.35218800  0.29722300  1
  C  C6  1  0.30042000  0.00090000  0.74529300  1
  C  C7  1  0.00090000  0.30042000  0.24529300  1
  C  C8  1  0.99235000  0.68710000  0.75526600  1
  C  C9  1  0.68710000  0.99235000  0.25526600  1
  C  C10  1  0.66755800  0.90730600  0.94255500  1
  C  C11  1  0.90730600  0.66755800  0.44255500  1
  C  C12  1  0.84790700  0.49393900  0.95529300  1
  C  C13  1  0.49393900  0.84790700  0.45529300  1
  C  C14  1  0.35940100  0.68866200  0.94785100  1
  C  C15  1  0.68866200  0.35940100  0.44785100  1
  C  C16  1  0.83734200  0.15801100  0.74894800  1
  C  C17  1  0.15801100  0.83734200  0.24894800  1
  C  C18  1  0.32052500  0.64818300  0.53025800  1
  C  C19  1  0.64818300  0.32052500  0.03025800  1
  C  C20  1  0.51915300  0.14640700  0.54398300  1
  C  C21  1  0.14640700  0.51915300  0.04398300  1
  C  C22  1  0.05844100  0.35593900  0.58395500  1
  C  C23  1  0.35593900  0.05844100  0.08395500  1
  Ni  Ni24  1  0.78323700  0.70649200  0.85327600  1
  Ni  Ni25  1  0.91455800  0.58705100  0.61884600  1
  Ni  Ni26  1  0.70649200  0.78323700  0.35327600  1
  Ni  Ni27  1  0.58705100  0.91455800  0.11884600  1
  Cu  Cu28  1  0.93418400  0.92652600  0.66360000  1
  Cu  Cu29  1  0.92652600  0.93418400  0.16360000  1
  Cu  Cu30  1  0.56703900  0.91114100  0.61829900  1
  Cu  Cu31  1  0.91114100  0.56703900  0.11829900  1
  Cu  Cu32  1  0.42949000  0.76596100  0.79421800  1
  Cu  Cu33  1  0.73305900  0.39243000  0.83889900  1
  Cu  Cu34  1  0.76596100  0.42949000  0.29421800  1
  Cu  Cu35  1  0.39243000  0.73305900  0.33889900  1
  Cu  Cu36  1  0.26308500  0.90532400  0.55354700  1
  Cu  Cu37  1  0.57785300  0.57831700  0.55439100  1
  Cu  Cu38  1  0.90408000  0.23984200  0.56342200  1
  Cu  Cu39  1  0.90532400  0.26308500  0.05354700  1
  Cu  Cu40  1  0.57831700  0.57785300  0.05439100  1
  Cu  Cu41  1  0.23984200  0.90408000  0.06342200  1
  Cu  Cu42  1  0.75355200  0.09394700  0.93168100  1
  Cu  Cu43  1  0.40181900  0.43097100  0.95203200  1
  Cu  Cu44  1  0.10285000  0.74406100  0.93172200  1
  Cu  Cu45  1  0.09394700  0.75355200  0.43168100  1
  Cu  Cu46  1  0.43097100  0.40181900  0.45203200  1
  Cu  Cu47  1  0.74406100  0.10285000  0.43172200  1
  Cu  Cu48  1  0.59300500  0.23498700  0.68631000  1
  Cu  Cu49  1  0.24940300  0.57174800  0.69447600  1
  Cu  Cu50  1  0.23498700  0.59300500  0.18631000  1
  Cu  Cu51  1  0.57174800  0.24940300  0.19447600  1
  Cu  Cu52  1  0.11174800  0.42689300  0.88417800  1
  Cu  Cu53  1  0.41142200  0.08971800  0.88804100  1
  Cu  Cu54  1  0.42689300  0.11174800  0.38417800  1
  Cu  Cu55  1  0.28440700  0.21380900  0.65028100  1
  Cu  Cu56  1  0.08971800  0.41142200  0.38804100  1
  Cu  Cu57  1  0.21380900  0.28440700  0.15028100  1
  Cu  Cu58  1  0.06722600  0.07796100  0.81887800  1
  Cu  Cu59  1  0.07796100  0.06722600  0.31887800  1
