# generated using pymatgen
data_CuNiC5
_symmetry_space_group_name_H-M   'P 1'
_cell_length_a   6.82447000
_cell_length_b   6.83274600
_cell_length_c   8.90418572
_cell_angle_alpha   73.14646040
_cell_angle_beta   90.00000000
_cell_angle_gamma   90.00000000
_symmetry_Int_Tables_number   1
_chemical_formula_structural   CuNiC5
_chemical_formula_sum   'Cu2 Ni2 C10'
_cell_volume   397.36772244
_cell_formula_units_Z   2
loop_
 _symmetry_equiv_pos_site_id
 _symmetry_equiv_pos_as_xyz
  1  'x, y, z'
loop_
 _atom_site_type_symbol
 _atom_site_label
 _atom_site_symmetry_multiplicity
 _atom_site_fract_x
 _atom_site_fract_y
 _atom_site_fract_z
 _atom_site_occupancy
  Ni  Ni0  1  0.25000000  0.26826000  0.93405100  1
  Ni  Ni1  1  0.75000000  0.73174000  0.06594900  1
  Cu  Cu2  1  0.75000000  0.76877100  0.55053600  1
  Cu  Cu3  1  0.25000000  0.23122900  0.44946400  1
  C  C4  1  0.75000000  0.21100100  0.68818800  1
  C  C5  1  0.25000000  0.78899900  0.31181200  1
  C  C6  1  0.25000000  0.60762600  0.55971800  1
  C  C7  1  0.49652700  0.00306900  0.72850300  1
  C  C8  1  0.00347300  0.00306900  0.72850300  1
  C  C9  1  0.75000000  0.41236000  0.83927700  1
  C  C10  1  0.25000000  0.58764000  0.16072300  1
  C  C11  1  0.99652700  0.99693100  0.27149700  1
  C  C12  1  0.50347300  0.99693100  0.27149700  1
  C  C13  1  0.75000000  0.39237400  0.44028200  1
