# generated using pymatgen
data_Cu3NiC2
_symmetry_space_group_name_H-M   'P 1'
_cell_length_a   4.76908800
_cell_length_b   5.70960000
_cell_length_c   11.04172549
_cell_angle_alpha   82.82142873
_cell_angle_beta   90.00000000
_cell_angle_gamma   90.00000000
_symmetry_Int_Tables_number   1
_chemical_formula_structural   Cu3NiC2
_chemical_formula_sum   'Cu12 Ni4 C8'
_cell_volume   298.30486715
_cell_formula_units_Z   4
loop_
 _symmetry_equiv_pos_site_id
 _symmetry_equiv_pos_as_xyz
  1  'x, y, z'
loop_
 _atom_site_type_symbol
 _atom_site_label
 _atom_site_symmetry_multiplicity
 _atom_site_fract_x
 _atom_site_fract_y
 _atom_site_fract_z
 _atom_site_occupancy
  C  C0  1  0.50000000  0.50000000  0.00000000  1
  C  C1  1  0.50000000  0.00000000  0.50000000  1
  C  C2  1  0.53233800  0.73977000  0.26673200  1
  C  C3  1  0.46766200  0.26023000  0.73326800  1
  C  C4  1  0.03233800  0.26023000  0.23326800  1
  C  C5  1  0.00000000  0.50000000  0.50000000  1
  C  C6  1  0.96766200  0.73977000  0.76673200  1
  C  C7  1  0.00000000  0.00000000  0.00000000  1
  Ni  Ni8  1  0.79665900  0.73599700  0.93814000  1
  Ni  Ni9  1  0.70334100  0.73599700  0.43814000  1
  Ni  Ni10  1  0.29665900  0.26400300  0.56186000  1
  Ni  Ni11  1  0.20334100  0.26400300  0.06186000  1
  Cu  Cu12  1  0.80063900  0.23669100  0.41326000  1
  Cu  Cu13  1  0.81555000  0.46448100  0.67395000  1
  Cu  Cu14  1  0.80710700  0.97412200  0.16857300  1
  Cu  Cu15  1  0.68445000  0.46448100  0.17395000  1
  Cu  Cu16  1  0.69936100  0.23669100  0.91326000  1
  Cu  Cu17  1  0.69289300  0.97412200  0.66857300  1
  Cu  Cu18  1  0.31555000  0.53551900  0.82605000  1
  Cu  Cu19  1  0.30063900  0.76330900  0.08674000  1
  Cu  Cu20  1  0.30710700  0.02587800  0.33142700  1
  Cu  Cu21  1  0.19289300  0.02587800  0.83142700  1
  Cu  Cu22  1  0.18445000  0.53551900  0.32605000  1
  Cu  Cu23  1  0.19936100  0.76330900  0.58674000  1
