# generated using pymatgen
data_Cu8Ni2C13
_symmetry_space_group_name_H-M   'P 1'
_cell_length_a   7.89822600
_cell_length_b   10.66395313
_cell_length_c   12.03895635
_cell_angle_alpha   80.22461852
_cell_angle_beta   89.99327049
_cell_angle_gamma   89.99107033
_symmetry_Int_Tables_number   1
_chemical_formula_structural   Cu8Ni2C13
_chemical_formula_sum   'Cu32 Ni8 C52'
_cell_volume   999.27459656
_cell_formula_units_Z   4
loop_
 _symmetry_equiv_pos_site_id
 _symmetry_equiv_pos_as_xyz
  1  'x, y, z'
loop_
 _atom_site_type_symbol
 _atom_site_label
 _atom_site_symmetry_multiplicity
 _atom_site_fract_x
 _atom_site_fract_y
 _atom_site_fract_z
 _atom_site_occupancy
  Ni  Ni0  1  0.91540000  0.46399200  0.86262400  1
  Ni  Ni1  1  0.91483700  0.96390800  0.63746300  1
  Ni  Ni2  1  0.61728400  0.31164700  0.60917300  1
  Ni  Ni3  1  0.61008400  0.80210700  0.92884500  1
  Ni  Ni4  1  0.38966600  0.19769000  0.07253600  1
  Ni  Ni5  1  0.38978900  0.69768900  0.42846000  1
  Ni  Ni6  1  0.08524100  0.03616500  0.36252400  1
  Ni  Ni7  1  0.08515100  0.53615300  0.13765000  1
  Cu  Cu8  1  0.99580100  0.27825400  0.34082300  1
  Cu  Cu9  1  0.99572000  0.77827900  0.15905800  1
  Cu  Cu10  1  0.86223200  0.23735900  0.58590700  1
  Cu  Cu11  1  0.87531400  0.43472700  0.40524200  1
  Cu  Cu12  1  0.86208900  0.73771800  0.91400600  1
  Cu  Cu13  1  0.76070000  0.11080800  0.08175900  1
  Cu  Cu14  1  0.87533600  0.93474600  0.09475500  1
  Cu  Cu15  1  0.70306500  0.04179400  0.51034700  1
  Cu  Cu16  1  0.76076800  0.61100100  0.41848000  1
  Cu  Cu17  1  0.67286100  0.30496700  0.05103000  1
  Cu  Cu18  1  0.70327400  0.54176100  0.98975300  1
  Cu  Cu19  1  0.60271100  0.10222500  0.89313200  1
  Cu  Cu20  1  0.67278700  0.80502400  0.44969100  1
  Cu  Cu21  1  0.60281500  0.60358500  0.60690200  1
  Cu  Cu22  1  0.55845000  0.45177800  0.18642400  1
  Cu  Cu23  1  0.44155700  0.04817500  0.68578900  1
  Cu  Cu24  1  0.55853900  0.95206700  0.31398500  1
  Cu  Cu25  1  0.44145300  0.54799100  0.81402000  1
  Cu  Cu26  1  0.39723600  0.39667500  0.39317100  1
  Cu  Cu27  1  0.32744000  0.19559000  0.54965900  1
  Cu  Cu28  1  0.39719400  0.89707900  0.10702200  1
  Cu  Cu29  1  0.29671800  0.45838100  0.01063100  1
  Cu  Cu30  1  0.32720100  0.69537000  0.94989800  1
  Cu  Cu31  1  0.23946600  0.38925800  0.58150300  1
  Cu  Cu32  1  0.29674500  0.95851100  0.48939800  1
  Cu  Cu33  1  0.12470400  0.06526800  0.90522600  1
  Cu  Cu34  1  0.23934600  0.88930300  0.91848600  1
  Cu  Cu35  1  0.13796100  0.26232800  0.08592900  1
  Cu  Cu36  1  0.12469200  0.56521200  0.59471100  1
  Cu  Cu37  1  0.13800600  0.76237900  0.41407000  1
  Cu  Cu38  1  0.00435800  0.22172300  0.84100000  1
  Cu  Cu39  1  0.00429500  0.72178700  0.65905000  1
  C  C40  1  0.94176500  0.19960400  0.46312000  1
  C  C41  1  0.96338100  0.39753500  0.31169900  1
  C  C42  1  0.91585900  0.25575100  0.75581100  1
  C  C43  1  0.84636200  0.05055100  0.14021100  1
  C  C44  1  0.94163800  0.69966300  0.03676300  1
  C  C45  1  0.96347000  0.89759500  0.18815100  1
  C  C46  1  0.91578500  0.75572700  0.74422000  1
  C  C47  1  0.82929700  0.36194200  0.53670300  1
  C  C48  1  0.84627900  0.55040400  0.35971500  1
  C  C49  1  0.75681200  0.14496000  0.59826300  1
  C  C50  1  0.75563700  0.23331200  0.12189800  1
  C  C51  1  0.82880700  0.86186200  0.96369600  1
  C  C52  1  0.67742500  0.03979000  0.98014000  1
  C  C53  1  0.73376400  0.42384400  0.97252200  1
  C  C54  1  0.75643000  0.64514400  0.90219600  1
  C  C55  1  0.75556200  0.73328300  0.37803800  1
  C  C56  1  0.61169700  0.05537000  0.40736800  1
  C  C57  1  0.67769000  0.54050500  0.52081900  1
  C  C58  1  0.73386500  0.92406200  0.52690800  1
  C  C59  1  0.60234100  0.22884100  0.91584100  1
  C  C60  1  0.59212200  0.33616200  0.17951700  1
  C  C61  1  0.61187400  0.55539400  0.09294400  1
  C  C62  1  0.52991900  0.02428300  0.78761600  1
  C  C63  1  0.60188800  0.72949200  0.58374000  1
  C  C64  1  0.59232000  0.83630000  0.31945500  1
  C  C65  1  0.53022900  0.52474300  0.71260600  1
  C  C66  1  0.47009100  0.47523800  0.28783500  1
  C  C67  1  0.40770500  0.16374100  0.68053100  1
  C  C68  1  0.39718800  0.27057200  0.41560500  1
  C  C69  1  0.47004800  0.97541500  0.21228200  1
  C  C70  1  0.38839800  0.44465800  0.90756600  1
  C  C71  1  0.40766000  0.66364300  0.81953500  1
  C  C72  1  0.39794900  0.77087100  0.08360600  1
  C  C73  1  0.26602600  0.07605400  0.47312800  1
  C  C74  1  0.32274700  0.46018800  0.48005400  1
  C  C75  1  0.38838700  0.94473200  0.59231700  1
  C  C76  1  0.24446700  0.26687700  0.62197500  1
  C  C77  1  0.24356300  0.35485400  0.09762400  1
  C  C78  1  0.26608700  0.57614000  0.02692500  1
  C  C79  1  0.32248100  0.96005700  0.02031800  1
  C  C80  1  0.17112300  0.13811400  0.03629100  1
  C  C81  1  0.24442500  0.76676400  0.87811600  1
  C  C82  1  0.24360400  0.85475700  0.40223000  1
  C  C83  1  0.15363500  0.44955700  0.64021700  1
  C  C84  1  0.17110400  0.63811000  0.46362300  1
  C  C85  1  0.08420000  0.24429500  0.25572900  1
  C  C86  1  0.03651600  0.10240400  0.81182800  1
  C  C87  1  0.05829600  0.30033700  0.96325800  1
  C  C88  1  0.15364700  0.94947200  0.85976200  1
  C  C89  1  0.08418300  0.74424600  0.24423100  1
  C  C90  1  0.03652900  0.60244200  0.68814900  1
  C  C91  1  0.05831200  0.80033700  0.53675500  1
