# generated using pymatgen
data_CuNiC17
_symmetry_space_group_name_H-M   'P 1'
_cell_length_a   14.05958937
_cell_length_b   14.05958937
_cell_length_c   14.05958937
_cell_angle_alpha   96.16732564
_cell_angle_beta   96.16732564
_cell_angle_gamma   141.73318461
_symmetry_Int_Tables_number   1
_chemical_formula_structural   CuNiC17
_chemical_formula_sum   'Cu8 Ni8 C136'
_cell_volume   1626.13523599
_cell_formula_units_Z   8
loop_
 _symmetry_equiv_pos_site_id
 _symmetry_equiv_pos_as_xyz
  1  'x, y, z'
loop_
 _atom_site_type_symbol
 _atom_site_label
 _atom_site_symmetry_multiplicity
 _atom_site_fract_x
 _atom_site_fract_y
 _atom_site_fract_z
 _atom_site_occupancy
  C  C0  1  0.58555700  0.73456200  0.26174300  1
  C  C1  1  0.04532400  0.17010100  0.27356800  1
  C  C2  1  0.04625100  0.17097200  0.44164700  1
  C  C3  1  0.56549600  0.69767300  0.44968200  1
  C  C4  1  0.42010100  0.64653300  0.62477800  1
  C  C5  1  0.36581400  0.31549600  0.36782400  1
  C  C6  1  0.98456200  0.22282000  0.64900500  1
  C  C7  1  0.85460400  0.79625100  0.37528000  1
  C  C8  1  0.42097200  0.47932500  0.62472000  1
  C  C9  1  0.57381500  0.33555700  0.35099500  1
  C  C10  1  0.94767300  0.99799100  0.63217600  1
  C  C11  1  0.02175600  0.79532400  0.37522200  1
  C  C12  1  0.24799100  0.11581400  0.55031800  1
  C  C13  1  0.72932500  0.60460400  0.55835300  1
  C  C14  1  0.23121800  0.85527800  0.30292100  1
  C  C15  1  0.69764300  0.82170300  0.80292100  1
  C  C16  1  0.63266800  0.16880500  0.31608000  1
  C  C17  1  0.39727500  0.43341300  0.81608000  1
  C  C18  1  0.12551000  0.19982300  0.87570200  1
  C  C19  1  0.92587900  0.50019200  0.37570200  1
  C  C20  1  0.89653300  0.77175600  0.72643200  1
  C  C21  1  0.68341300  0.36733200  0.53613700  1
  C  C22  1  0.41880500  0.60272500  0.03613700  1
  C  C23  1  0.47282000  0.32381500  0.73825700  1
  C  C24  1  0.07170300  0.76878200  0.62406000  1
  C  C25  1  0.10527800  0.30235700  0.12406000  1
  C  C26  1  0.75019200  0.87449000  0.07431300  1
  C  C27  1  0.44982300  0.07412100  0.57431300  1
  C  C28  1  0.80017700  0.67587900  0.92568700  1
  C  C29  1  0.49980800  0.87551000  0.42568700  1
  C  C30  1  0.17829700  0.98121800  0.87594000  1
  C  C31  1  0.14472200  0.44764300  0.37594000  1
  C  C32  1  0.77718000  0.42618500  0.76174300  1
  C  C33  1  0.83119500  0.14727500  0.46386300  1
  C  C34  1  0.56658700  0.38266800  0.96386300  1
  C  C35  1  0.35346700  0.97824400  0.77356800  1
  C  C36  1  0.12449000  0.55017700  0.62429800  1
  C  C37  1  0.32412100  0.24980800  0.12429800  1
  C  C38  1  0.61733200  0.58119500  0.18392000  1
  C  C39  1  0.85272500  0.31658700  0.68392000  1
  C  C40  1  0.01878200  0.89472200  0.19707900  1
  C  C41  1  0.55235700  0.92829700  0.69707900  1
  C  C42  1  0.52067500  0.14539600  0.94164700  1
  C  C43  1  0.00200900  0.63418600  0.94968200  1
  C  C44  1  0.22824400  0.95467600  0.12477800  1
  C  C45  1  0.30232700  0.75200900  0.86782400  1
  C  C46  1  0.67618500  0.41444300  0.14900500  1
  C  C47  1  0.82902800  0.27067500  0.87528000  1
  C  C48  1  0.39539600  0.95374900  0.12472000  1
  C  C49  1  0.26543800  0.52718000  0.85099500  1
  C  C50  1  0.88418600  0.43450400  0.13217600  1
  C  C51  1  0.82989900  0.10346700  0.87522200  1
  C  C52  1  0.68450400  0.05232700  0.05031800  1
  C  C53  1  0.20374900  0.57902800  0.05835300  1
  C  C54  1  0.20467600  0.57989900  0.22643200  1
  C  C55  1  0.66444300  0.01543800  0.23825700  1
  Ni  Ni56  1  0.36190700  0.43159600  0.28045000  1
  Ni  Ni57  1  0.68159600  0.90114600  0.56968800  1
  Ni  Ni58  1  0.33145700  0.11190700  0.43031200  1
  Ni  Ni59  1  0.15114600  0.08145700  0.71955000  1
  Ni  Ni60  1  0.09885400  0.66854300  0.78045000  1
  Ni  Ni61  1  0.91854300  0.63809300  0.06968800  1
  Ni  Ni62  1  0.56840400  0.84885400  0.93031200  1
  Ni  Ni63  1  0.88809300  0.31840400  0.21955000  1
  Cu  Cu64  1  0.12391500  0.35892200  0.96222100  1
  Cu  Cu65  1  0.85329900  0.58830600  0.46222100  1
  Cu  Cu66  1  0.41169400  0.87391500  0.26499200  1
  Cu  Cu67  1  0.64107800  0.60329900  0.76499200  1
  Cu  Cu68  1  0.60892200  0.14670100  0.73500800  1
  Cu  Cu69  1  0.83830600  0.87608500  0.23500800  1
  Cu  Cu70  1  0.12608500  0.39107800  0.53777900  1
  Cu  Cu71  1  0.39670100  0.16169400  0.03777900  1
  C  C72  1  0.45704000  0.59663700  0.32195900  1
  C  C73  1  0.96748200  0.08891200  0.30908300  1
  C  C74  1  0.82390600  0.83978500  0.36336700  1
  C  C75  1  0.36453000  0.38633900  0.37740800  1
  C  C76  1  0.08978500  0.22641800  0.51587900  1
  C  C77  1  0.63633900  0.75893100  0.52180900  1
  C  C78  1  0.33891200  0.52982900  0.62143100  1
  C  C79  1  0.84663700  0.02467900  0.63959800  1
  C  C80  1  0.38508100  0.20704000  0.36040200  1
  C  C81  1  0.90839800  0.71748200  0.37856900  1
  C  C82  1  0.23712200  0.11453000  0.47819100  1
  C  C83  1  0.71053900  0.57390600  0.48412100  1
  C  C84  1  0.20320500  0.41774000  0.85032400  1
  C  C85  1  0.68258400  0.39711900  0.35032400  1
  C  C86  1  0.00893100  0.98712200  0.62259200  1
  C  C87  1  0.47641800  0.46053900  0.63663300  1
  C  C88  1  0.68624200  0.91292500  0.87742400  1
  C  C89  1  0.21449900  0.94118200  0.37742400  1
  C  C90  1  0.21737800  0.78753500  0.25002200  1
  C  C91  1  0.71248700  0.78264400  0.75002200  1
  C  C92  1  0.20485100  0.21631800  0.78081200  1
  C  C93  1  0.81449400  0.32596100  0.28081200  1
  C  C94  1  0.49927100  0.55320000  0.83188500  1
  C  C95  1  0.52868500  0.08261400  0.33188500  1
  C  C96  1  0.46631800  0.18550600  0.51146700  1
  C  C97  1  0.57596100  0.79514900  0.01146700  1
  C  C98  1  0.77982900  0.65839800  0.69091700  1
  C  C99  1  0.27467900  0.13508100  0.67804100  1
  C  C100  1  0.99067400  0.60259700  0.42808100  1
  C  C101  1  0.07548400  0.18740800  0.92808100  1
  C  C102  1  0.03753500  0.28751300  0.07015700  1
  C  C103  1  0.03264400  0.78262200  0.57015700  1
  C  C104  1  0.33261400  0.50072900  0.05392800  1
  C  C105  1  0.80320000  0.47131500  0.55392800  1
  C  C106  1  0.08707500  0.96449900  0.77331700  1
  C  C107  1  0.05881800  0.43624200  0.27331700  1
  C  C108  1  0.58226000  0.43258400  0.78546500  1
  C  C109  1  0.60288100  0.95320500  0.28546500  1
  C  C110  1  0.39740300  0.82548400  0.38807600  1
  C  C111  1  0.81259200  0.74067400  0.88807600  1
  C  C112  1  0.43740800  0.00932600  0.61192400  1
  C  C113  1  0.85259700  0.92451600  0.11192400  1
  C  C114  1  0.66774000  0.31741600  0.71453500  1
  C  C115  1  0.64711900  0.79679500  0.21453500  1
  C  C116  1  0.16292500  0.78550100  0.72668300  1
  C  C117  1  0.19118200  0.31375800  0.22668300  1
  C  C118  1  0.91738600  0.24927100  0.44607200  1
  C  C119  1  0.44680000  0.27868500  0.94607200  1
  C  C120  1  0.21246500  0.46248700  0.42984300  1
  C  C121  1  0.21735600  0.96737800  0.92984300  1
  C  C122  1  0.17451600  0.56259200  0.57191900  1
  C  C123  1  0.25932600  0.14740300  0.07191900  1
  C  C124  1  0.97532100  0.61491900  0.82195900  1
  C  C125  1  0.47017100  0.09160200  0.80908300  1
  C  C126  1  0.67403900  0.95485100  0.48853300  1
  C  C127  1  0.78368200  0.56449400  0.98853300  1
  C  C128  1  0.75072900  0.19680000  0.66811500  1
  C  C129  1  0.72131500  0.66738600  0.16811500  1
  C  C130  1  0.04514900  0.53368200  0.71918800  1
  C  C131  1  0.43550600  0.42403900  0.21918800  1
  C  C132  1  0.03262200  0.96246500  0.24997800  1
  C  C133  1  0.53751300  0.96735600  0.74997800  1
  C  C134  1  0.56375800  0.83707500  0.62257600  1
  C  C135  1  0.03550100  0.80881800  0.12257600  1
  C  C136  1  0.77358200  0.28946100  0.86336700  1
  C  C137  1  0.24106900  0.76287800  0.87740800  1
  C  C138  1  0.04679500  0.33226000  0.64967600  1
  C  C139  1  0.56741600  0.35288100  0.14967600  1
  C  C140  1  0.53946100  0.17609400  0.01587900  1
  C  C141  1  0.01287800  0.63547000  0.02180900  1
  C  C142  1  0.34160200  0.03251800  0.12143100  1
  C  C143  1  0.86491900  0.54296000  0.13959800  1
  C  C144  1  0.40336300  0.72532100  0.86040200  1
  C  C145  1  0.91108800  0.22017100  0.87856900  1
  C  C146  1  0.61366100  0.99106900  0.97819100  1
  C  C147  1  0.16021500  0.52358200  0.98412100  1
  C  C148  1  0.88547000  0.36366100  0.12259200  1
  C  C149  1  0.42609400  0.91021500  0.13663300  1
  C  C150  1  0.28251800  0.66108800  0.19091700  1
  C  C151  1  0.79296000  0.15336300  0.17804100  1
