# generated using pymatgen
data_Cu7Ni2C3
_symmetry_space_group_name_H-M   'P 1'
_cell_length_a   3.87676300
_cell_length_b   11.34247700
_cell_length_c   12.55014200
_cell_angle_alpha   90.00000000
_cell_angle_beta   90.00000000
_cell_angle_gamma   90.00000000
_symmetry_Int_Tables_number   1
_chemical_formula_structural   Cu7Ni2C3
_chemical_formula_sum   'Cu14 Ni4 C6'
_cell_volume   551.85603832
_cell_formula_units_Z   2
loop_
 _symmetry_equiv_pos_site_id
 _symmetry_equiv_pos_as_xyz
  1  'x, y, z'
loop_
 _atom_site_type_symbol
 _atom_site_label
 _atom_site_symmetry_multiplicity
 _atom_site_fract_x
 _atom_site_fract_y
 _atom_site_fract_z
 _atom_site_occupancy
  C  C0  1  0.00000000  0.50000000  0.00000000  1
  C  C1  1  0.00000000  0.00000000  0.50000000  1
  C  C2  1  0.00000000  0.10981000  0.14699400  1
  C  C3  1  0.00000000  0.89019000  0.85300600  1
  C  C4  1  0.00000000  0.60981000  0.35300600  1
  C  C5  1  0.00000000  0.39019000  0.64699400  1
  Ni  Ni6  1  0.50000000  0.22158200  0.89083300  1
  Ni  Ni7  1  0.50000000  0.77841800  0.10916700  1
  Ni  Ni8  1  0.50000000  0.72158200  0.60916700  1
  Ni  Ni9  1  0.50000000  0.27841800  0.39083300  1
  Cu  Cu10  1  0.00000000  0.14595300  0.78978400  1
  Cu  Cu11  1  0.00000000  0.85404700  0.21021600  1
  Cu  Cu12  1  0.00000000  0.64595300  0.71021600  1
  Cu  Cu13  1  0.00000000  0.35404700  0.28978400  1
  Cu  Cu14  1  0.50000000  0.20196200  0.56895600  1
  Cu  Cu15  1  0.50000000  0.79803800  0.43104400  1
  Cu  Cu16  1  0.50000000  0.70196200  0.93104400  1
  Cu  Cu17  1  0.50000000  0.29803800  0.06895600  1
  Cu  Cu18  1  0.50000000  0.42462200  0.81849500  1
  Cu  Cu19  1  0.50000000  0.57537800  0.18150500  1
  Cu  Cu20  1  0.50000000  0.92462200  0.68150500  1
  Cu  Cu21  1  0.50000000  0.07537800  0.31849500  1
  Cu  Cu22  1  0.50000000  0.50000000  0.50000000  1
  Cu  Cu23  1  0.50000000  0.00000000  0.00000000  1
