# generated using pymatgen
data_CuNiC10
_symmetry_space_group_name_H-M   'P 1'
_cell_length_a   5.69153700
_cell_length_b   6.91413700
_cell_length_c   8.92983934
_cell_angle_alpha   70.55710866
_cell_angle_beta   90.00000000
_cell_angle_gamma   90.00000000
_symmetry_Int_Tables_number   1
_chemical_formula_structural   CuNiC10
_chemical_formula_sum   'Cu2 Ni2 C20'
_cell_volume   331.36816907
_cell_formula_units_Z   2
loop_
 _symmetry_equiv_pos_site_id
 _symmetry_equiv_pos_as_xyz
  1  'x, y, z'
loop_
 _atom_site_type_symbol
 _atom_site_label
 _atom_site_symmetry_multiplicity
 _atom_site_fract_x
 _atom_site_fract_y
 _atom_site_fract_z
 _atom_site_occupancy
  C  C0  1  0.25000000  0.79431700  0.53377300  1
  C  C1  1  0.75000000  0.20568300  0.46622700  1
  Ni  Ni2  1  0.75000000  0.23060000  0.99838800  1
  Ni  Ni3  1  0.25000000  0.76940000  0.00161200  1
  Cu  Cu4  1  0.75000000  0.79844800  0.26524500  1
  Cu  Cu5  1  0.25000000  0.20155200  0.73475500  1
  C  C6  1  0.75000000  0.86017900  0.84326100  1
  C  C7  1  0.25000000  0.13982100  0.15673900  1
  C  C8  1  0.75000000  0.55274200  0.68066800  1
  C  C9  1  0.25000000  0.44725800  0.31933200  1
  C  C10  1  0.75000000  0.61500700  0.84745000  1
  C  C11  1  0.25000000  0.38499300  0.15255000  1
  C  C12  1  0.99110300  0.96572800  0.74889600  1
  C  C13  1  0.49110300  0.03427200  0.25110400  1
  C  C14  1  0.00889700  0.03427200  0.25110400  1
  C  C15  1  0.50889700  0.96572800  0.74889600  1
  C  C16  1  0.75000000  0.86349600  0.02425800  1
  C  C17  1  0.25000000  0.13650400  0.97574200  1
  C  C18  1  0.75000000  0.76177100  0.52373100  1
  C  C19  1  0.25000000  0.23822900  0.47626900  1
  C  C20  1  0.51328600  0.41887700  0.68676000  1
  C  C21  1  0.01328600  0.58112300  0.31324000  1
  C  C22  1  0.48671400  0.58112300  0.31324000  1
  C  C23  1  0.98671400  0.41887700  0.68676000  1
