# generated using pymatgen
data_Cu3NiC
_symmetry_space_group_name_H-M   'P 1'
_cell_length_a   6.22209136
_cell_length_b   6.22209136
_cell_length_c   14.57894300
_cell_angle_alpha   90.00000000
_cell_angle_beta   90.00000000
_cell_angle_gamma   119.99999322
_symmetry_Int_Tables_number   1
_chemical_formula_structural   Cu3NiC
_chemical_formula_sum   'Cu12 Ni4 C4'
_cell_volume   488.79805253
_cell_formula_units_Z   4
loop_
 _symmetry_equiv_pos_site_id
 _symmetry_equiv_pos_as_xyz
  1  'x, y, z'
loop_
 _atom_site_type_symbol
 _atom_site_label
 _atom_site_symmetry_multiplicity
 _atom_site_fract_x
 _atom_site_fract_y
 _atom_site_fract_z
 _atom_site_occupancy
  C  C0  1  0.00000000  0.00000000  0.75000000  1
  C  C1  1  0.00000000  0.00000000  0.25000000  1
  C  C2  1  0.33333300  0.66666700  0.75000000  1
  C  C3  1  0.66666700  0.33333300  0.25000000  1
  Ni  Ni4  1  0.66666700  0.33333300  0.67369100  1
  Ni  Ni5  1  0.66666700  0.33333300  0.82630900  1
  Ni  Ni6  1  0.33333300  0.66666700  0.32630900  1
  Ni  Ni7  1  0.33333300  0.66666700  0.17369100  1
  Cu  Cu8  1  0.96581600  0.30383600  0.86527600  1
  Cu  Cu9  1  0.33802000  0.30383600  0.63472400  1
  Cu  Cu10  1  0.96581600  0.66198000  0.63472400  1
  Cu  Cu11  1  0.69616400  0.03418400  0.63472400  1
  Cu  Cu12  1  0.30383600  0.33802000  0.13472400  1
  Cu  Cu13  1  0.66198000  0.96581600  0.13472400  1
  Cu  Cu14  1  0.03418400  0.69616400  0.13472400  1
  Cu  Cu15  1  0.66198000  0.69616400  0.36527600  1
  Cu  Cu16  1  0.03418400  0.33802000  0.36527600  1
  Cu  Cu17  1  0.30383600  0.96581600  0.36527600  1
  Cu  Cu18  1  0.69616400  0.66198000  0.86527600  1
  Cu  Cu19  1  0.33802000  0.03418400  0.86527600  1
