# generated using pymatgen
data_Cu(NiC6)5
_symmetry_space_group_name_H-M   'P 1'
_cell_length_a   8.57826659
_cell_length_b   8.57826659
_cell_length_c   8.57826660
_cell_angle_alpha   60.36737653
_cell_angle_beta   60.36737653
_cell_angle_gamma   60.36737168
_symmetry_Int_Tables_number   1
_chemical_formula_structural   Cu(NiC6)5
_chemical_formula_sum   'Cu1 Ni5 C30'
_cell_volume   450.06744959
_cell_formula_units_Z   1
loop_
 _symmetry_equiv_pos_site_id
 _symmetry_equiv_pos_as_xyz
  1  'x, y, z'
loop_
 _atom_site_type_symbol
 _atom_site_label
 _atom_site_symmetry_multiplicity
 _atom_site_fract_x
 _atom_site_fract_y
 _atom_site_fract_z
 _atom_site_occupancy
  Ni  Ni0  1  0.00049500  0.00049500  0.00049500  1
  Ni  Ni1  1  0.64427100  0.64427100  0.64427100  1
  Ni  Ni2  1  0.50020400  0.50020400  0.50020400  1
  Ni  Ni3  1  0.85642700  0.85642700  0.85642700  1
  Ni  Ni4  1  0.35629800  0.35629800  0.35629800  1
  Cu  Cu5  1  0.14520900  0.14520900  0.14520900  1
  C  C6  1  0.95692100  0.24967900  0.54322300  1
  C  C7  1  0.54322300  0.95692100  0.24967900  1
  C  C8  1  0.24967900  0.54322300  0.95692100  1
  C  C9  1  0.74988000  0.45631700  0.04271800  1
  C  C10  1  0.45631700  0.04271800  0.74988000  1
  C  C11  1  0.04271800  0.74988000  0.45631700  1
  C  C12  1  0.50477100  0.11637700  0.31156200  1
  C  C13  1  0.31156200  0.50477100  0.11637700  1
  C  C14  1  0.11637700  0.31156200  0.50477100  1
  C  C15  1  0.94045300  0.08773400  0.74076100  1
  C  C16  1  0.99195600  0.18873800  0.38707900  1
  C  C17  1  0.76057500  0.41372700  0.56219500  1
  C  C18  1  0.74076100  0.94045300  0.08773400  1
  C  C19  1  0.56219500  0.76057500  0.41372700  1
  C  C20  1  0.81049800  0.61554600  0.00531500  1
  C  C21  1  0.41372700  0.56219500  0.76057500  1
  C  C22  1  0.91062100  0.26136000  0.05653200  1
  C  C23  1  0.61554600  0.00531500  0.81049800  1
  C  C24  1  0.38707900  0.99195600  0.18873800  1
  C  C25  1  0.08773400  0.74076100  0.94045300  1
  C  C26  1  0.58602000  0.44009500  0.23939300  1
  C  C27  1  0.18873800  0.38707900  0.99195600  1
  C  C28  1  0.44009500  0.23939300  0.58602000  1
  C  C29  1  0.26136000  0.05653200  0.91062100  1
  C  C30  1  0.23939300  0.58602000  0.44009500  1
  C  C31  1  0.00531500  0.81049800  0.61554600  1
  C  C32  1  0.05653200  0.91062100  0.26136000  1
  C  C33  1  0.88508300  0.68301600  0.49896500  1
  C  C34  1  0.68301600  0.49896500  0.88508300  1
  C  C35  1  0.49896500  0.88508300  0.68301600  1
