# generated using pymatgen
data_Cu2NiC7
_symmetry_space_group_name_H-M   'P 1'
_cell_length_a   6.39088523
_cell_length_b   6.39088523
_cell_length_c   6.39088551
_cell_angle_alpha   46.05196459
_cell_angle_beta   46.05196459
_cell_angle_gamma   46.05195928
_symmetry_Int_Tables_number   1
_chemical_formula_structural   Cu2NiC7
_chemical_formula_sum   'Cu2 Ni1 C7'
_cell_volume   123.42826070
_cell_formula_units_Z   1
loop_
 _symmetry_equiv_pos_site_id
 _symmetry_equiv_pos_as_xyz
  1  'x, y, z'
loop_
 _atom_site_type_symbol
 _atom_site_label
 _atom_site_symmetry_multiplicity
 _atom_site_fract_x
 _atom_site_fract_y
 _atom_site_fract_z
 _atom_site_occupancy
  C  C0  1  0.00000000  0.00000000  0.00000000  1
  Ni  Ni1  1  0.50000000  0.50000000  0.50000000  1
  Cu  Cu2  1  0.76501900  0.76501900  0.76501900  1
  Cu  Cu3  1  0.23498100  0.23498100  0.23498100  1
  C  C4  1  0.50859300  0.71805300  0.05773400  1
  C  C5  1  0.71805300  0.05773400  0.50859300  1
  C  C6  1  0.94226600  0.49140700  0.28194700  1
  C  C7  1  0.49140700  0.28194700  0.94226600  1
  C  C8  1  0.28194700  0.94226600  0.49140700  1
  C  C9  1  0.05773400  0.50859300  0.71805300  1
