# generated using pymatgen
data_Cu2NiC8
_symmetry_space_group_name_H-M   'P 1'
_cell_length_a   16.88507000
_cell_length_b   8.42732300
_cell_length_c   8.53227327
_cell_angle_alpha   87.73768472
_cell_angle_beta   90.00000000
_cell_angle_gamma   90.00000000
_symmetry_Int_Tables_number   1
_chemical_formula_structural   Cu2NiC8
_chemical_formula_sum   'Cu16 Ni8 C64'
_cell_volume   1213.16152836
_cell_formula_units_Z   8
loop_
 _symmetry_equiv_pos_site_id
 _symmetry_equiv_pos_as_xyz
  1  'x, y, z'
loop_
 _atom_site_type_symbol
 _atom_site_label
 _atom_site_symmetry_multiplicity
 _atom_site_fract_x
 _atom_site_fract_y
 _atom_site_fract_z
 _atom_site_occupancy
  C  C0  1  0.94716100  0.69353400  0.24154600  1
  C  C1  1  0.55283900  0.69353400  0.74154600  1
  C  C2  1  0.25212400  0.84158800  0.19252400  1
  C  C3  1  0.24787600  0.84158800  0.69252400  1
  C  C4  1  0.75212400  0.15841200  0.30747600  1
  C  C5  1  0.74787600  0.15841200  0.80747600  1
  C  C6  1  0.44716100  0.30646600  0.25845400  1
  C  C7  1  0.05283900  0.30646600  0.75845400  1
  Ni  Ni8  1  0.37485800  0.64990800  0.46358500  1
  Ni  Ni9  1  0.12514200  0.64990800  0.96358500  1
  Ni  Ni10  1  0.63485800  0.86008500  0.04080000  1
  Ni  Ni11  1  0.86514200  0.86008500  0.54080000  1
  Ni  Ni12  1  0.13485800  0.13991500  0.45920000  1
  Ni  Ni13  1  0.36514200  0.13991500  0.95920000  1
  Ni  Ni14  1  0.87485800  0.35009200  0.03641500  1
  Ni  Ni15  1  0.62514200  0.35009200  0.53641500  1
  Cu  Cu16  1  0.32270900  0.52882900  0.07955900  1
  Cu  Cu17  1  0.17729100  0.52882900  0.57955900  1
  Cu  Cu18  1  0.57370900  0.74482500  0.41703000  1
  Cu  Cu19  1  0.92629100  0.74482500  0.91703000  1
  Cu  Cu20  1  0.08378100  0.75397200  0.36289300  1
  Cu  Cu21  1  0.41621900  0.75397200  0.86289300  1
  Cu  Cu22  1  0.82095200  0.95542000  0.09965400  1
  Cu  Cu23  1  0.67904800  0.95542000  0.59965400  1
  Cu  Cu24  1  0.32095200  0.04458000  0.40034600  1
  Cu  Cu25  1  0.17904800  0.04458000  0.90034600  1
  Cu  Cu26  1  0.58378100  0.24602800  0.13710700  1
  Cu  Cu27  1  0.91621900  0.24602800  0.63710700  1
  Cu  Cu28  1  0.07370900  0.25517500  0.08297000  1
  Cu  Cu29  1  0.42629100  0.25517500  0.58297000  1
  Cu  Cu30  1  0.82270900  0.47117100  0.42044100  1
  Cu  Cu31  1  0.67729100  0.47117100  0.92044100  1
  C  C32  1  0.24288800  0.52985100  0.99716400  1
  C  C33  1  0.25711200  0.52985100  0.49716400  1
  C  C34  1  0.92027500  0.59354600  0.02512300  1
  C  C35  1  0.57972500  0.59354600  0.52512300  1
  C  C36  1  0.10899700  0.59447500  0.46228300  1
  C  C37  1  0.39100300  0.59447500  0.96228300  1
  C  C38  1  0.32130700  0.64243100  0.21662700  1
  C  C39  1  0.17869300  0.64243100  0.71662700  1
  C  C40  1  0.85382600  0.64033300  0.37877300  1
  C  C41  1  0.64617400  0.64033300  0.87877300  1
  C  C42  1  0.06749800  0.68647700  0.19941300  1
  C  C43  1  0.43250200  0.68647700  0.69941300  1
  C  C44  1  0.63445400  0.75669500  0.28296700  1
  C  C45  1  0.86554600  0.75669500  0.78296700  1
  C  C46  1  0.48928900  0.77823100  0.36368500  1
  C  C47  1  0.01071100  0.77823100  0.86368500  1
  C  C48  1  0.00550700  0.81173700  0.42660200  1
  C  C49  1  0.49449300  0.81173700  0.92660200  1
  C  C50  1  0.75532400  0.83249500  0.06539700  1
  C  C51  1  0.74467600  0.83249500  0.56539700  1
  C  C52  1  0.15285500  0.87457200  0.36245400  1
  C  C53  1  0.34714500  0.87457200  0.86245400  1
  C  C54  1  0.90413500  0.87650000  0.04935800  1
  C  C55  1  0.30902500  0.89314400  0.50400400  1
  C  C56  1  0.59586500  0.87650000  0.54935800  1
  C  C57  1  0.19097500  0.89314400  0.00400400  1
  C  C58  1  0.82832500  0.99037500  0.27257500  1
  C  C59  1  0.67167500  0.99037500  0.77257500  1
  C  C60  1  0.32832500  0.00962500  0.22742500  1
  C  C61  1  0.17167500  0.00962500  0.72742500  1
  C  C62  1  0.80902500  0.10685600  0.99599600  1
  C  C63  1  0.40413500  0.12350000  0.45064200  1
  C  C64  1  0.69097500  0.10685600  0.49599600  1
  C  C65  1  0.09586500  0.12350000  0.95064200  1
  C  C66  1  0.65285500  0.12542800  0.13754600  1
  C  C67  1  0.84714500  0.12542800  0.63754600  1
  C  C68  1  0.25532400  0.16750500  0.43460300  1
  C  C69  1  0.24467600  0.16750500  0.93460300  1
  C  C70  1  0.50550700  0.18826300  0.07339800  1
  C  C71  1  0.99449300  0.18826300  0.57339800  1
  C  C72  1  0.98928900  0.22176900  0.13631500  1
  C  C73  1  0.51071100  0.22176900  0.63631500  1
  C  C74  1  0.13445400  0.24330500  0.21703300  1
  C  C75  1  0.36554600  0.24330500  0.71703300  1
  C  C76  1  0.56749800  0.31352300  0.30058700  1
  C  C77  1  0.93250200  0.31352300  0.80058700  1
  C  C78  1  0.35382600  0.35966700  0.12122700  1
  C  C79  1  0.14617400  0.35966700  0.62122700  1
  C  C80  1  0.82130700  0.35756900  0.28337300  1
  C  C81  1  0.67869300  0.35756900  0.78337300  1
  C  C82  1  0.60899700  0.40552500  0.03771700  1
  C  C83  1  0.89100300  0.40552500  0.53771700  1
  C  C84  1  0.42027500  0.40645400  0.47487700  1
  C  C85  1  0.07972500  0.40645400  0.97487700  1
  C  C86  1  0.74288800  0.47014900  0.50283600  1
  C  C87  1  0.75711200  0.47014900  0.00283600  1
