# generated using pymatgen
data_Cu6Ni2C39
_symmetry_space_group_name_H-M   'P 1'
_cell_length_a   10.05346200
_cell_length_b   6.33261500
_cell_length_c   12.63794785
_cell_angle_alpha   84.47200961
_cell_angle_beta   90.00000000
_cell_angle_gamma   90.00000000
_symmetry_Int_Tables_number   1
_chemical_formula_structural   Cu6Ni2C39
_chemical_formula_sum   'Cu12 Ni4 C78'
_cell_volume   800.84926526
_cell_formula_units_Z   2
loop_
 _symmetry_equiv_pos_site_id
 _symmetry_equiv_pos_as_xyz
  1  'x, y, z'
loop_
 _atom_site_type_symbol
 _atom_site_label
 _atom_site_symmetry_multiplicity
 _atom_site_fract_x
 _atom_site_fract_y
 _atom_site_fract_z
 _atom_site_occupancy
  C  C0  1  0.62332300  0.83551900  0.33249400  1
  C  C1  1  0.87667700  0.83551900  0.83249400  1
  C  C2  1  0.37667700  0.16448100  0.66750600  1
  C  C3  1  0.12332300  0.16448100  0.16750600  1
  C  C4  1  0.49715800  0.68092200  0.37196600  1
  C  C5  1  0.00284200  0.68092200  0.87196600  1
  C  C6  1  0.50284200  0.31907800  0.62803400  1
  C  C7  1  0.99715800  0.31907800  0.12803400  1
  C  C8  1  0.47120200  0.90397400  0.29825300  1
  C  C9  1  0.02879800  0.90397400  0.79825300  1
  C  C10  1  0.52879800  0.09602600  0.70174700  1
  C  C11  1  0.97120200  0.09602600  0.20174700  1
  C  C12  1  0.37692500  0.62045700  0.52266300  1
  C  C13  1  0.12307500  0.62045700  0.02266300  1
  C  C14  1  0.62307500  0.37954300  0.47733700  1
  C  C15  1  0.87692500  0.37954300  0.97733700  1
  C  C16  1  0.37845900  0.71646800  0.64174100  1
  C  C17  1  0.12154100  0.71646800  0.14174100  1
  C  C18  1  0.62154100  0.28353200  0.35825900  1
  C  C19  1  0.87845900  0.28353200  0.85825900  1
  C  C20  1  0.27100100  0.80437700  0.55039000  1
  C  C21  1  0.22899900  0.80437700  0.05039000  1
  C  C22  1  0.72899900  0.19562300  0.44961000  1
  C  C23  1  0.77100100  0.19562300  0.94961000  1
  C  C24  1  0.03452900  0.15038000  0.41133100  1
  C  C25  1  0.46547100  0.15038000  0.91133100  1
  C  C26  1  0.96547100  0.84962000  0.58866900  1
  C  C27  1  0.53452900  0.84962000  0.08866900  1
  C  C28  1  0.89138000  0.04727300  0.42352300  1
  C  C29  1  0.60862000  0.04727300  0.92352300  1
  C  C30  1  0.10862000  0.95272700  0.57647700  1
  C  C31  1  0.39138000  0.95272700  0.07647700  1
  C  C32  1  0.76748200  0.39031900  0.65780500  1
  C  C33  1  0.73251800  0.39031900  0.15780500  1
  C  C34  1  0.23251800  0.60968100  0.34219500  1
  C  C35  1  0.26748200  0.60968100  0.84219500  1
  C  C36  1  0.79148500  0.14171900  0.68525700  1
  C  C37  1  0.70851500  0.14171900  0.18525700  1
  C  C38  1  0.20851500  0.85828100  0.31474300  1
  C  C39  1  0.29148500  0.85828100  0.81474300  1
  C  C40  1  0.09719400  0.56639000  0.64007200  1
  C  C41  1  0.40280600  0.56639000  0.14007200  1
  C  C42  1  0.90280600  0.43361000  0.35992800  1
  C  C43  1  0.59719400  0.43361000  0.85992800  1
  C  C44  1  0.99597700  0.35122000  0.65372600  1
  C  C45  1  0.50402300  0.35122000  0.15372600  1
  C  C46  1  0.00402300  0.64878000  0.34627400  1
  C  C47  1  0.49597700  0.64878000  0.84627400  1
  C  C48  1  0.13938000  0.33969700  0.58108100  1
  C  C49  1  0.36062000  0.33969700  0.08108100  1
  C  C50  1  0.86062000  0.66030300  0.41891900  1
  C  C51  1  0.63938000  0.66030300  0.91891900  1
  C  C52  1  0.14490800  0.33444200  0.71493400  1
  C  C53  1  0.35509200  0.33444200  0.21493500  1
  C  C54  1  0.85509200  0.66555800  0.28506600  1
  C  C55  1  0.64490800  0.66555800  0.78506600  1
  C  C56  1  0.50000000  0.00000000  0.50000000  1
  C  C57  1  0.00000000  0.00000000  0.00000000  1
  Ni  Ni58  1  0.67668900  0.81188900  0.57820000  1
  Ni  Ni59  1  0.82331100  0.81188900  0.07820000  1
  Ni  Ni60  1  0.32331100  0.18811100  0.42180000  1
  Ni  Ni61  1  0.17668900  0.18811100  0.92180000  1
  Cu  Cu62  1  0.52780200  0.83661200  0.36021400  1
  Cu  Cu63  1  0.97219800  0.83661200  0.86021400  1
  Cu  Cu64  1  0.47219800  0.16338800  0.63978600  1
  Cu  Cu65  1  0.02780200  0.16338800  0.13978600  1
  Cu  Cu66  1  0.36716800  0.75515200  0.56166000  1
  Cu  Cu67  1  0.13283200  0.75515200  0.06166000  1
  Cu  Cu68  1  0.63283200  0.24484800  0.43834000  1
  Cu  Cu69  1  0.86716800  0.24484800  0.93834000  1
  Cu  Cu70  1  0.09571200  0.40079000  0.64708600  1
  Cu  Cu71  1  0.40428800  0.40079000  0.14708600  1
  Cu  Cu72  1  0.90428800  0.59921000  0.35291400  1
  Cu  Cu73  1  0.59571200  0.59921000  0.85291400  1
  C  C74  1  0.71574700  0.88212900  0.68656600  1
  C  C75  1  0.78425300  0.88212900  0.18656600  1
  C  C76  1  0.28425300  0.11787100  0.31343400  1
  C  C77  1  0.21574700  0.11787100  0.81343400  1
  C  C78  1  0.64879100  0.57404900  0.59669500  1
  C  C79  1  0.85120900  0.57404900  0.09669500  1
  C  C80  1  0.35120900  0.42595100  0.40330500  1
  C  C81  1  0.14879100  0.42595100  0.90330500  1
  C  C82  1  0.80510700  0.83540300  0.50990500  1
  C  C83  1  0.69489300  0.83540300  0.00990500  1
  C  C84  1  0.19489300  0.16459700  0.49009500  1
  C  C85  1  0.30510700  0.16459700  0.99009500  1
  C  C86  1  0.94342800  0.15590900  0.38048400  1
  C  C87  1  0.55657200  0.15590900  0.88048400  1
  C  C88  1  0.05657200  0.84409100  0.61951600  1
  C  C89  1  0.44342800  0.84409100  0.11951600  1
  C  C90  1  0.83208600  0.28354600  0.69010400  1
  C  C91  1  0.66791400  0.28354600  0.19010400  1
  C  C92  1  0.16791400  0.71645400  0.30989600  1
  C  C93  1  0.33208600  0.71645400  0.80989600  1
