# generated using pymatgen
data_Cu4Ni6C5
_symmetry_space_group_name_H-M   'P 1'
_cell_length_a   11.59697400
_cell_length_b   11.92973300
_cell_length_c   16.33695800
_cell_angle_alpha   90.00000000
_cell_angle_beta   90.00000000
_cell_angle_gamma   90.00000000
_symmetry_Int_Tables_number   1
_chemical_formula_structural   Cu4Ni6C5
_chemical_formula_sum   'Cu32 Ni48 C40'
_cell_volume   2260.19859095
_cell_formula_units_Z   8
loop_
 _symmetry_equiv_pos_site_id
 _symmetry_equiv_pos_as_xyz
  1  'x, y, z'
loop_
 _atom_site_type_symbol
 _atom_site_label
 _atom_site_symmetry_multiplicity
 _atom_site_fract_x
 _atom_site_fract_y
 _atom_site_fract_z
 _atom_site_occupancy
  C  C0  1  0.73043600  0.16746300  0.47754900  1
  C  C1  1  0.23043600  0.33253700  0.52245100  1
  C  C2  1  0.26956400  0.66746300  0.02245100  1
  C  C3  1  0.76956400  0.83253700  0.97754900  1
  C  C4  1  0.26956400  0.83253700  0.52245100  1
  C  C5  1  0.76956400  0.66746300  0.47754900  1
  C  C6  1  0.73043600  0.33253700  0.97754900  1
  C  C7  1  0.23043600  0.16746300  0.02245100  1
  Ni  Ni8  1  0.77036100  0.08362800  0.29424500  1
  Ni  Ni9  1  0.27036100  0.41637200  0.70575500  1
  Ni  Ni10  1  0.22963900  0.58362800  0.20575500  1
  Ni  Ni11  1  0.72963900  0.91637200  0.79424500  1
  Ni  Ni12  1  0.22963900  0.91637200  0.70575500  1
  Ni  Ni13  1  0.72963900  0.58362800  0.29424500  1
  Ni  Ni14  1  0.77036100  0.41637200  0.79424500  1
  Ni  Ni15  1  0.27036100  0.08362800  0.20575500  1
  Ni  Ni16  1  0.69804400  0.15214800  0.22148700  1
  Ni  Ni17  1  0.19804400  0.34785200  0.77851300  1
  Ni  Ni18  1  0.30195600  0.65214800  0.27851300  1
  Ni  Ni19  1  0.80195600  0.84785200  0.72148700  1
  Ni  Ni20  1  0.30195600  0.84785200  0.77851300  1
  Ni  Ni21  1  0.80195600  0.65214800  0.22148700  1
  Ni  Ni22  1  0.69804400  0.34785200  0.72148700  1
  Ni  Ni23  1  0.19804400  0.15214800  0.27851300  1
  Ni  Ni24  1  0.62572300  0.07827000  0.28497800  1
  Ni  Ni25  1  0.12572300  0.42173000  0.71502200  1
  Ni  Ni26  1  0.37427700  0.57827000  0.21502200  1
  Ni  Ni27  1  0.87427700  0.92173000  0.78497800  1
  Ni  Ni28  1  0.37427700  0.92173000  0.71502200  1
  Ni  Ni29  1  0.87427700  0.57827000  0.28497800  1
  Ni  Ni30  1  0.62572300  0.42173000  0.78497800  1
  Ni  Ni31  1  0.12572300  0.07827000  0.21502200  1
  Ni  Ni32  1  0.68277800  0.08019200  0.37546000  1
  Ni  Ni33  1  0.18277800  0.41980800  0.62454000  1
  Ni  Ni34  1  0.31722200  0.58019200  0.12454000  1
  Ni  Ni35  1  0.81722200  0.91980800  0.87546000  1
  Ni  Ni36  1  0.31722200  0.91980800  0.62454000  1
  Ni  Ni37  1  0.81722200  0.58019200  0.37546000  1
  Ni  Ni38  1  0.68277800  0.41980800  0.87546000  1
  Ni  Ni39  1  0.18277800  0.08019200  0.12454000  1
  Ni  Ni40  1  0.80535600  0.17948200  0.36433200  1
  Ni  Ni41  1  0.30535600  0.32051800  0.63566800  1
  Ni  Ni42  1  0.19464400  0.67948200  0.13566800  1
  Ni  Ni43  1  0.69464400  0.82051800  0.86433200  1
  Ni  Ni44  1  0.19464400  0.82051800  0.63566800  1
  Ni  Ni45  1  0.69464400  0.67948200  0.36433200  1
  Ni  Ni46  1  0.80535600  0.32051800  0.86433200  1
  Ni  Ni47  1  0.30535600  0.17948200  0.13566800  1
  Ni  Ni48  1  0.79721600  0.21820900  0.26946700  1
  Ni  Ni49  1  0.29721600  0.28179100  0.73053300  1
  Ni  Ni50  1  0.20278400  0.71820900  0.23053300  1
  Ni  Ni51  1  0.70278400  0.78179100  0.76946700  1
  Ni  Ni52  1  0.20278400  0.78179100  0.73053300  1
  Ni  Ni53  1  0.70278400  0.71820900  0.26946700  1
  Ni  Ni54  1  0.79721600  0.28179100  0.76946700  1
  Ni  Ni55  1  0.29721600  0.21820900  0.23053300  1
  Cu  Cu56  1  0.81297100  0.27594000  0.52551900  1
  Cu  Cu57  1  0.31297100  0.22406000  0.47448100  1
  Cu  Cu58  1  0.18702900  0.77594000  0.97448100  1
  Cu  Cu59  1  0.68702900  0.72406000  0.02551900  1
  Cu  Cu60  1  0.18702900  0.72406000  0.47448100  1
  Cu  Cu61  1  0.68702900  0.77594000  0.52551900  1
  Cu  Cu62  1  0.81297100  0.22406000  0.02551900  1
  Cu  Cu63  1  0.31297100  0.27594000  0.97448100  1
  Cu  Cu64  1  0.61863000  0.12755000  0.54856600  1
  Cu  Cu65  1  0.11863000  0.37245000  0.45143400  1
  Cu  Cu66  1  0.38137000  0.62755000  0.95143400  1
  Cu  Cu67  1  0.88137000  0.87245000  0.04856600  1
  Cu  Cu68  1  0.38137000  0.87245000  0.45143400  1
  Cu  Cu69  1  0.88137000  0.62755000  0.54856600  1
  Cu  Cu70  1  0.61863000  0.37245000  0.04856600  1
  Cu  Cu71  1  0.11863000  0.12755000  0.95143400  1
  Cu  Cu72  1  0.63480500  0.26440300  0.42788000  1
  Cu  Cu73  1  0.13480500  0.23559700  0.57212000  1
  Cu  Cu74  1  0.36519500  0.76440300  0.07212000  1
  Cu  Cu75  1  0.86519500  0.73559700  0.92788000  1
  Cu  Cu76  1  0.36519500  0.73559700  0.57212000  1
  Cu  Cu77  1  0.86519500  0.76440300  0.42788000  1
  Cu  Cu78  1  0.63480500  0.23559700  0.92788000  1
  Cu  Cu79  1  0.13480500  0.26440300  0.07212000  1
  Cu  Cu80  1  0.82499000  0.05687200  0.51445000  1
  Cu  Cu81  1  0.32499000  0.44312800  0.48555000  1
  Cu  Cu82  1  0.17501000  0.55687200  0.98555000  1
  Cu  Cu83  1  0.67501000  0.94312800  0.01445000  1
  Cu  Cu84  1  0.17501000  0.94312800  0.48555000  1
  Cu  Cu85  1  0.67501000  0.55687200  0.51445000  1
  Cu  Cu86  1  0.82499000  0.44312800  0.01445000  1
  Cu  Cu87  1  0.32499000  0.05687200  0.98555000  1
  C  C88  1  0.86596100  0.34847400  0.55364100  1
  C  C89  1  0.36596100  0.15152600  0.44635900  1
  C  C90  1  0.13403900  0.84847400  0.94635900  1
  C  C91  1  0.63403900  0.65152600  0.05364100  1
  C  C92  1  0.13403900  0.65152600  0.44635900  1
  C  C93  1  0.63403900  0.84847400  0.55364100  1
  C  C94  1  0.86596100  0.15152600  0.05364100  1
  C  C95  1  0.36596100  0.34847400  0.94635900  1
  C  C96  1  0.54375200  0.10516000  0.59196000  1
  C  C97  1  0.04375200  0.39484000  0.40804000  1
  C  C98  1  0.45624800  0.60516000  0.90804000  1
  C  C99  1  0.95624800  0.89484000  0.09196000  1
  C  C100  1  0.45624800  0.89484000  0.40804000  1
  C  C101  1  0.95624800  0.60516000  0.59196000  1
  C  C102  1  0.54375200  0.39484000  0.09196000  1
  C  C103  1  0.04375200  0.10516000  0.90804000  1
  C  C104  1  0.57309600  0.32611400  0.39550100  1
  C  C105  1  0.07309600  0.17388600  0.60449900  1
  C  C106  1  0.42690400  0.82611400  0.10449900  1
  C  C107  1  0.92690400  0.67388600  0.89550100  1
  C  C108  1  0.42690400  0.67388600  0.60449900  1
  C  C109  1  0.92690400  0.82611400  0.39550100  1
  C  C110  1  0.57309600  0.17388600  0.89550100  1
  C  C111  1  0.07309600  0.32611400  0.10449900  1
  C  C112  1  0.88172500  0.98911400  0.54505500  1
  C  C113  1  0.38172500  0.51088600  0.45494500  1
  C  C114  1  0.11827500  0.48911400  0.95494500  1
  C  C115  1  0.61827500  0.01088600  0.04505500  1
  C  C116  1  0.11827500  0.01088600  0.45494500  1
  C  C117  1  0.61827500  0.48911400  0.54505500  1
  C  C118  1  0.88172500  0.51088600  0.04505500  1
  C  C119  1  0.38172500  0.98911400  0.95494500  1
