# generated using pymatgen
data_CuNiC5
_symmetry_space_group_name_H-M   'P 1'
_cell_length_a   8.67365041
_cell_length_b   8.67365041
_cell_length_c   8.67365120
_cell_angle_alpha   107.98245565
_cell_angle_beta   107.98245565
_cell_angle_gamma   107.98245694
_symmetry_Int_Tables_number   1
_chemical_formula_structural   CuNiC5
_chemical_formula_sum   'Cu6 Ni6 C30'
_cell_volume   528.19911179
_cell_formula_units_Z   6
loop_
 _symmetry_equiv_pos_site_id
 _symmetry_equiv_pos_as_xyz
  1  'x, y, z'
loop_
 _atom_site_type_symbol
 _atom_site_label
 _atom_site_symmetry_multiplicity
 _atom_site_fract_x
 _atom_site_fract_y
 _atom_site_fract_z
 _atom_site_occupancy
  C  C0  1  0.87299200  0.08676300  0.25847500  1
  C  C1  1  0.74152500  0.12700800  0.91323700  1
  C  C2  1  0.91323700  0.74152500  0.12700800  1
  C  C3  1  0.08676300  0.25847500  0.87299200  1
  C  C4  1  0.25847500  0.87299200  0.08676300  1
  C  C5  1  0.12700800  0.91323700  0.74152500  1
  Ni  Ni6  1  0.60652300  0.19203200  0.42579300  1
  Ni  Ni7  1  0.80796800  0.57420700  0.39347700  1
  Ni  Ni8  1  0.57420700  0.39347700  0.80796800  1
  Ni  Ni9  1  0.42579300  0.60652300  0.19203200  1
  Ni  Ni10  1  0.19203200  0.42579300  0.60652300  1
  Ni  Ni11  1  0.39347700  0.80796800  0.57420700  1
  Cu  Cu12  1  0.94800300  0.53988900  0.77079700  1
  Cu  Cu13  1  0.46011100  0.22920300  0.05199700  1
  Cu  Cu14  1  0.22920300  0.05199700  0.46011100  1
  Cu  Cu15  1  0.77079700  0.94800300  0.53988900  1
  Cu  Cu16  1  0.53988900  0.77079700  0.94800300  1
  Cu  Cu17  1  0.05199700  0.46011100  0.22920300  1
  C  C18  1  0.68081400  0.97366300  0.01926100  1
  C  C19  1  0.98073900  0.31918600  0.02633700  1
  C  C20  1  0.74250900  0.06341800  0.42122500  1
  C  C21  1  0.57877500  0.25749100  0.93658200  1
  C  C22  1  0.36701600  0.04830900  0.36259900  1
  C  C23  1  0.72425700  0.38588200  0.67732100  1
  C  C24  1  0.93658200  0.57877500  0.25749100  1
  C  C25  1  0.61411800  0.32267900  0.27574300  1
  C  C26  1  0.95169100  0.63740100  0.63298400  1
  C  C27  1  0.63740100  0.63298400  0.95169100  1
  C  C28  1  0.32267900  0.27574300  0.61411800  1
  C  C29  1  0.02633700  0.98073900  0.31918600  1
  C  C30  1  0.97366300  0.01926100  0.68081400  1
  C  C31  1  0.67732100  0.72425700  0.38588200  1
  C  C32  1  0.36259900  0.36701600  0.04830900  1
  C  C33  1  0.04830900  0.36259900  0.36701600  1
  C  C34  1  0.38588200  0.67732100  0.72425700  1
  C  C35  1  0.06341800  0.42122500  0.74250900  1
  C  C36  1  0.27574300  0.61411800  0.32267900  1
  C  C37  1  0.63298400  0.95169100  0.63740100  1
  C  C38  1  0.42122500  0.74250900  0.06341800  1
  C  C39  1  0.25749100  0.93658200  0.57877500  1
  C  C40  1  0.01926100  0.68081400  0.97366300  1
  C  C41  1  0.31918600  0.02633700  0.98073900  1
