# generated using pymatgen
data_Cu(Ni4C3)2
_symmetry_space_group_name_H-M   'P 1'
_cell_length_a   6.51694497
_cell_length_b   6.51694497
_cell_length_c   6.51694484
_cell_angle_alpha   52.12642424
_cell_angle_beta   52.12642424
_cell_angle_gamma   52.12642181
_symmetry_Int_Tables_number   1
_chemical_formula_structural   Cu(Ni4C3)2
_chemical_formula_sum   'Cu1 Ni8 C6'
_cell_volume   159.49619030
_cell_formula_units_Z   1
loop_
 _symmetry_equiv_pos_site_id
 _symmetry_equiv_pos_as_xyz
  1  'x, y, z'
loop_
 _atom_site_type_symbol
 _atom_site_label
 _atom_site_symmetry_multiplicity
 _atom_site_fract_x
 _atom_site_fract_y
 _atom_site_fract_z
 _atom_site_occupancy
  Ni  Ni0  1  0.37125900  0.37125900  0.37125900  1
  Ni  Ni1  1  0.90471600  0.50052500  0.22174000  1
  Ni  Ni2  1  0.50052500  0.22174000  0.90471600  1
  Ni  Ni3  1  0.22174000  0.90471600  0.50052500  1
  Ni  Ni4  1  0.09528400  0.49947500  0.77826000  1
  Ni  Ni5  1  0.49947500  0.77826000  0.09528400  1
  Ni  Ni6  1  0.62874100  0.62874100  0.62874100  1
  Ni  Ni7  1  0.77826000  0.09528400  0.49947500  1
  Cu  Cu8  1  0.00000000  0.00000000  0.00000000  1
  C  C9  1  0.88622200  0.24398900  0.60058300  1
  C  C10  1  0.39941700  0.11377800  0.75601100  1
  C  C11  1  0.11377800  0.75601100  0.39941700  1
  C  C12  1  0.24398900  0.60058300  0.88622200  1
  C  C13  1  0.60058300  0.88622200  0.24398900  1
  C  C14  1  0.75601100  0.39941700  0.11377800  1
