# generated using pymatgen
data_Cu6Ni2C11
_symmetry_space_group_name_H-M   'P 1'
_cell_length_a   12.54900300
_cell_length_b   6.07557000
_cell_length_c   8.43092794
_cell_angle_alpha   81.60312900
_cell_angle_beta   90.00000000
_cell_angle_gamma   90.00000000
_symmetry_Int_Tables_number   1
_chemical_formula_structural   Cu6Ni2C11
_chemical_formula_sum   'Cu12 Ni4 C22'
_cell_volume   635.90317648
_cell_formula_units_Z   2
loop_
 _symmetry_equiv_pos_site_id
 _symmetry_equiv_pos_as_xyz
  1  'x, y, z'
loop_
 _atom_site_type_symbol
 _atom_site_label
 _atom_site_symmetry_multiplicity
 _atom_site_fract_x
 _atom_site_fract_y
 _atom_site_fract_z
 _atom_site_occupancy
  C  C0  1  0.11347200  0.21746200  0.42088100  1
  C  C1  1  0.61347200  0.78253800  0.07911900  1
  C  C2  1  0.88652800  0.78253800  0.57911900  1
  C  C3  1  0.38652800  0.21746200  0.92088100  1
  C  C4  1  0.50000000  0.00000000  0.50000000  1
  C  C5  1  0.00000000  0.00000000  0.00000000  1
  Ni  Ni6  1  0.82982900  0.46374800  0.37454500  1
  Ni  Ni7  1  0.32982900  0.53625200  0.12545500  1
  Ni  Ni8  1  0.17017100  0.53625200  0.62545500  1
  Ni  Ni9  1  0.67017100  0.46374800  0.87454500  1
  Cu  Cu10  1  0.59373500  0.10354500  0.62766900  1
  Cu  Cu11  1  0.09373500  0.89645500  0.87233100  1
  Cu  Cu12  1  0.40626500  0.89645500  0.37233100  1
  Cu  Cu13  1  0.90626500  0.10354500  0.12766900  1
  Cu  Cu14  1  0.58962400  0.15133000  0.36162300  1
  Cu  Cu15  1  0.08962400  0.84867000  0.13837700  1
  Cu  Cu16  1  0.41037600  0.84867000  0.63837700  1
  Cu  Cu17  1  0.91037600  0.15133000  0.86162300  1
  Cu  Cu18  1  0.45784300  0.27911100  0.49828000  1
  Cu  Cu19  1  0.95784300  0.72088900  0.00172000  1
  Cu  Cu20  1  0.54215700  0.72088900  0.50172000  1
  Cu  Cu21  1  0.04215700  0.27911100  0.99828000  1
  C  C22  1  0.29428700  0.51246200  0.27541200  1
  C  C23  1  0.79428700  0.48753800  0.22458800  1
  C  C24  1  0.70571300  0.48753800  0.72458800  1
  C  C25  1  0.20571300  0.51246200  0.77541200  1
  C  C26  1  0.16497500  0.00978300  0.42659600  1
  C  C27  1  0.66497500  0.99021700  0.07340400  1
  C  C28  1  0.83502500  0.99021700  0.57340400  1
  C  C29  1  0.33502500  0.00978300  0.92659600  1
  C  C30  1  0.05038900  0.37452400  0.32305500  1
  C  C31  1  0.55038900  0.62547600  0.17694500  1
  C  C32  1  0.94961100  0.62547600  0.67694500  1
  C  C33  1  0.44961100  0.37452400  0.82305500  1
  C  C34  1  0.13727900  0.30342500  0.61169300  1
  C  C35  1  0.63727900  0.69657500  0.88830700  1
  C  C36  1  0.86272100  0.69657500  0.38830700  1
  C  C37  1  0.36272100  0.30342500  0.11169300  1
