# generated using pymatgen
data_Cu5Ni2C7
_symmetry_space_group_name_H-M   'P 1'
_cell_length_a   14.62900426
_cell_length_b   14.62900426
_cell_length_c   14.62900426
_cell_angle_alpha   168.43291069
_cell_angle_beta   168.43291069
_cell_angle_gamma   16.38635759
_symmetry_Int_Tables_number   1
_chemical_formula_structural   Cu5Ni2C7
_chemical_formula_sum   'Cu5 Ni2 C7'
_cell_volume   125.86823164
_cell_formula_units_Z   1
loop_
 _symmetry_equiv_pos_site_id
 _symmetry_equiv_pos_as_xyz
  1  'x, y, z'
loop_
 _atom_site_type_symbol
 _atom_site_label
 _atom_site_symmetry_multiplicity
 _atom_site_fract_x
 _atom_site_fract_y
 _atom_site_fract_z
 _atom_site_occupancy
  C  C0  1  0.63879000  0.63879000  0.00000000  1
  C  C1  1  0.36121000  0.36121000  0.00000000  1
  C  C2  1  0.93122500  0.93122500  0.00000000  1
  C  C3  1  0.50000000  0.50000000  0.00000000  1
  C  C4  1  0.06877500  0.06877500  0.00000000  1
  C  C5  1  0.21868500  0.21868500  0.00000000  1
  C  C6  1  0.78131500  0.78131500  0.00000000  1
  Ni  Ni7  1  0.71025100  0.71025100  0.00000000  1
  Ni  Ni8  1  0.28974900  0.28974900  0.00000000  1
  Cu  Cu9  1  0.13842200  0.13842200  0.00000000  1
  Cu  Cu10  1  0.86157800  0.86157800  0.00000000  1
  Cu  Cu11  1  0.43106600  0.43106600  0.00000000  1
  Cu  Cu12  1  0.00000000  0.00000000  0.00000000  1
  Cu  Cu13  1  0.56893400  0.56893400  0.00000000  1
