# generated using pymatgen
data_Cu8Ni2C19
_symmetry_space_group_name_H-M   'P 1'
_cell_length_a   21.62281906
_cell_length_b   9.57401606
_cell_length_c   12.67548060
_cell_angle_alpha   90.00000000
_cell_angle_beta   90.00000000
_cell_angle_gamma   90.00000000
_symmetry_Int_Tables_number   1
_chemical_formula_structural   Cu8Ni2C19
_chemical_formula_sum   'Cu32 Ni8 C76'
_cell_volume   2624.04271723
_cell_formula_units_Z   4
loop_
 _symmetry_equiv_pos_site_id
 _symmetry_equiv_pos_as_xyz
  1  'x, y, z'
loop_
 _atom_site_type_symbol
 _atom_site_label
 _atom_site_symmetry_multiplicity
 _atom_site_fract_x
 _atom_site_fract_y
 _atom_site_fract_z
 _atom_site_occupancy
  C  C0  1  0.26186220  0.74842108  0.96909065  1
  C  C1  1  0.23813780  0.75157892  0.46909065  1
  C  C2  1  0.76186220  0.75157892  0.03090935  1
  C  C3  1  0.73813780  0.74842108  0.53090935  1
  C  C4  1  0.73813780  0.25157892  0.03090935  1
  C  C5  1  0.76186220  0.24842108  0.53090935  1
  C  C6  1  0.23813780  0.24842108  0.96909065  1
  C  C7  1  0.26186220  0.25157892  0.46909065  1
  C  C8  1  0.39385246  0.91939154  0.68957132  1
  C  C9  1  0.10614754  0.58060846  0.18957132  1
  C  C10  1  0.89385246  0.58060846  0.31042868  1
  C  C11  1  0.60614754  0.91939154  0.81042868  1
  C  C12  1  0.60614754  0.08060846  0.31042868  1
  C  C13  1  0.89385246  0.41939154  0.81042868  1
  C  C14  1  0.10614754  0.41939154  0.68957132  1
  C  C15  1  0.39385246  0.08060846  0.18957132  1
  Ni  Ni16  1  0.07105061  0.99442853  0.64998300  1
  Ni  Ni17  1  0.42894939  0.50557147  0.14998300  1
  Ni  Ni18  1  0.57105061  0.50557147  0.35001700  1
  Ni  Ni19  1  0.92894939  0.99442853  0.85001700  1
  Ni  Ni20  1  0.92894939  0.00557147  0.35001700  1
  Ni  Ni21  1  0.57105061  0.49442853  0.85001700  1
  Ni  Ni22  1  0.42894939  0.49442853  0.64998300  1
  Ni  Ni23  1  0.07105061  0.00557147  0.14998300  1
  Cu  Cu24  1  0.08547745  0.93582433  0.46993874  1
  Cu  Cu25  1  0.41452255  0.56417567  0.96993874  1
  Cu  Cu26  1  0.58547745  0.56417567  0.53006126  1
  Cu  Cu27  1  0.91452255  0.93582433  0.03006126  1
  Cu  Cu28  1  0.91452255  0.06417567  0.53006126  1
  Cu  Cu29  1  0.58547745  0.43582433  0.03006126  1
  Cu  Cu30  1  0.41452255  0.43582433  0.46993874  1
  Cu  Cu31  1  0.08547745  0.06417567  0.96993874  1
  Cu  Cu32  1  0.15698555  0.87963127  0.73080965  1
  Cu  Cu33  1  0.34301445  0.62036873  0.23080965  1
  Cu  Cu34  1  0.65698555  0.62036873  0.26919035  1
  Cu  Cu35  1  0.84301445  0.87963127  0.76919035  1
  Cu  Cu36  1  0.84301445  0.12036873  0.26919035  1
  Cu  Cu37  1  0.65698555  0.37963127  0.76919035  1
  Cu  Cu38  1  0.34301445  0.37963127  0.73080965  1
  Cu  Cu39  1  0.15698555  0.12036873  0.23080965  1
  Cu  Cu40  1  0.05230515  0.71570268  0.46190445  1
  Cu  Cu41  1  0.44769485  0.78429732  0.96190445  1
  Cu  Cu42  1  0.55230515  0.78429732  0.53809555  1
  Cu  Cu43  1  0.94769485  0.71570268  0.03809555  1
  Cu  Cu44  1  0.94769485  0.28429732  0.53809555  1
  Cu  Cu45  1  0.55230515  0.21570268  0.03809555  1
  Cu  Cu46  1  0.44769485  0.21570268  0.46190445  1
  Cu  Cu47  1  0.05230515  0.28429732  0.96190445  1
  Cu  Cu48  1  0.23029256  0.03560021  0.72082410  1
  Cu  Cu49  1  0.26970744  0.46439979  0.22082410  1
  Cu  Cu50  1  0.73029256  0.46439979  0.27917590  1
  Cu  Cu51  1  0.76970744  0.03560021  0.77917590  1
  Cu  Cu52  1  0.76970744  0.96439979  0.27917590  1
  Cu  Cu53  1  0.73029256  0.53560021  0.77917590  1
  Cu  Cu54  1  0.26970744  0.53560021  0.72082410  1
  Cu  Cu55  1  0.23029256  0.96439979  0.22082410  1
  C  C56  1  0.00504139  0.70069082  0.54299415  1
  C  C57  1  0.49495861  0.79930918  0.04299415  1
  C  C58  1  0.50504139  0.79930918  0.45700585  1
  C  C59  1  0.99495861  0.70069082  0.95700585  1
  C  C60  1  0.99495861  0.29930918  0.45700585  1
  C  C61  1  0.50504139  0.20069082  0.95700585  1
  C  C62  1  0.49495861  0.20069082  0.54299415  1
  C  C63  1  0.00504139  0.29930918  0.04299415  1
  C  C64  1  0.10851916  0.63337560  0.47757123  1
  C  C65  1  0.39148084  0.86662440  0.97757123  1
  C  C66  1  0.60851916  0.86662440  0.52242877  1
  C  C67  1  0.89148084  0.63337560  0.02242877  1
  C  C68  1  0.89148084  0.36662440  0.52242877  1
  C  C69  1  0.60851916  0.13337560  0.02242877  1
  C  C70  1  0.39148084  0.13337560  0.47757123  1
  C  C71  1  0.10851916  0.36662440  0.97757123  1
  C  C72  1  0.02879525  0.71543464  0.35296795  1
  C  C73  1  0.47120475  0.78456536  0.85296795  1
  C  C74  1  0.52879525  0.78456536  0.64703205  1
  C  C75  1  0.97120475  0.71543464  0.14703205  1
  C  C76  1  0.97120475  0.28456536  0.64703205  1
  C  C77  1  0.52879525  0.21543464  0.14703205  1
  C  C78  1  0.47120475  0.21543464  0.35296795  1
  C  C79  1  0.02879525  0.28456536  0.85296795  1
  C  C80  1  0.20115087  0.17319741  0.72924778  1
  C  C81  1  0.29884913  0.32680259  0.22924778  1
  C  C82  1  0.70115087  0.32680259  0.27075222  1
  C  C83  1  0.79884913  0.17319741  0.77075222  1
  C  C84  1  0.79884913  0.82680259  0.27075222  1
  C  C85  1  0.70115087  0.67319741  0.77075222  1
  C  C86  1  0.29884913  0.67319741  0.72924778  1
  C  C87  1  0.20115087  0.82680259  0.22924778  1
  C  C88  1  0.26094215  0.01135844  0.61870966  1
  C  C89  1  0.23905785  0.48864156  0.11870966  1
  C  C90  1  0.76094215  0.48864156  0.38129034  1
  C  C91  1  0.73905785  0.01135844  0.88129034  1
  C  C92  1  0.73905785  0.98864156  0.38129034  1
  C  C93  1  0.76094215  0.51135844  0.88129034  1
  C  C94  1  0.23905785  0.51135844  0.61870966  1
  C  C95  1  0.26094215  0.98864156  0.11870966  1
  C  C96  1  0.26841051  0.99731059  0.81207600  1
  C  C97  1  0.23158949  0.50268941  0.31207600  1
  C  C98  1  0.76841051  0.50268941  0.18792400  1
  C  C99  1  0.73158949  0.99731059  0.68792400  1
  C  C100  1  0.73158949  0.00268941  0.18792400  1
  C  C101  1  0.76841051  0.49731059  0.68792400  1
  C  C102  1  0.23158949  0.49731059  0.81207600  1
  C  C103  1  0.26841051  0.00268941  0.31207600  1
  C  C104  1  0.13003320  0.67213950  0.95598096  1
  C  C105  1  0.36996680  0.82786050  0.45598096  1
  C  C106  1  0.63003320  0.82786050  0.04401904  1
  C  C107  1  0.86996680  0.67213950  0.54401904  1
  C  C108  1  0.86996680  0.32786050  0.04401904  1
  C  C109  1  0.63003320  0.17213950  0.54401904  1
  C  C110  1  0.36996680  0.17213950  0.95598096  1
  C  C111  1  0.13003320  0.32786050  0.45598096  1
  C  C112  1  0.00000000  0.61350012  0.75000000  1
  C  C113  1  0.50000000  0.88649988  0.25000000  1
  C  C114  1  0.00000000  0.38649988  0.25000000  1
  C  C115  1  0.50000000  0.11350012  0.75000000  1
