# generated using pymatgen
data_CuNiC10
_symmetry_space_group_name_H-M   'P 1'
_cell_length_a   8.60538872
_cell_length_b   8.60538872
_cell_length_c   8.60538885
_cell_angle_alpha   60.58518080
_cell_angle_beta   60.58518080
_cell_angle_gamma   60.58517396
_symmetry_Int_Tables_number   1
_chemical_formula_structural   CuNiC10
_chemical_formula_sum   'Cu3 Ni3 C30'
_cell_volume   456.56141914
_cell_formula_units_Z   3
loop_
 _symmetry_equiv_pos_site_id
 _symmetry_equiv_pos_as_xyz
  1  'x, y, z'
loop_
 _atom_site_type_symbol
 _atom_site_label
 _atom_site_symmetry_multiplicity
 _atom_site_fract_x
 _atom_site_fract_y
 _atom_site_fract_z
 _atom_site_occupancy
  Ni  Ni0  1  0.64497500  0.64497500  0.64497500  1
  Ni  Ni1  1  0.85645300  0.85645300  0.85645300  1
  Ni  Ni2  1  0.35490900  0.35490900  0.35490900  1
  Cu  Cu3  1  0.99927000  0.99927000  0.99927000  1
  Cu  Cu4  1  0.14167300  0.14167300  0.14167300  1
  Cu  Cu5  1  0.50100000  0.50100000  0.50100000  1
  C  C6  1  0.95593800  0.24981600  0.54271400  1
  C  C7  1  0.54271400  0.95593800  0.24981600  1
  C  C8  1  0.24981600  0.54271400  0.95593800  1
  C  C9  1  0.74914800  0.45715500  0.04346600  1
  C  C10  1  0.45715500  0.04346600  0.74914800  1
  C  C11  1  0.04346600  0.74914800  0.45715500  1
  C  C12  1  0.49729300  0.11802100  0.31527700  1
  C  C13  1  0.31527700  0.49729300  0.11802000  1
  C  C14  1  0.11802100  0.31527700  0.49729300  1
  C  C15  1  0.94190200  0.08959800  0.73946100  1
  C  C16  1  0.99033900  0.18675900  0.39139000  1
  C  C17  1  0.76115000  0.41313100  0.56500800  1
  C  C18  1  0.73946100  0.94190200  0.08959800  1
  C  C19  1  0.56500800  0.76115000  0.41313100  1
  C  C20  1  0.81554200  0.61682000  0.99812600  1
  C  C21  1  0.41313100  0.56500800  0.76115000  1
  C  C22  1  0.90408300  0.26316100  0.05477500  1
  C  C23  1  0.61682000  0.99812600  0.81554200  1
  C  C24  1  0.39139000  0.99033900  0.18675900  1
  C  C25  1  0.08959800  0.73946100  0.94190200  1
  C  C26  1  0.58721300  0.44443900  0.23827500  1
  C  C27  1  0.18675900  0.39139000  0.99033900  1
  C  C28  1  0.44443900  0.23827500  0.58721300  1
  C  C29  1  0.26316100  0.05477500  0.90408300  1
  C  C30  1  0.23827500  0.58721300  0.44443900  1
  C  C31  1  0.99812600  0.81554200  0.61682000  1
  C  C32  1  0.05477500  0.90408300  0.26316100  1
  C  C33  1  0.88469400  0.67891600  0.50811100  1
  C  C34  1  0.67891600  0.50811100  0.88469400  1
  C  C35  1  0.50811100  0.88469400  0.67891600  1
