# generated using pymatgen
data_Cu5NiC3
_symmetry_space_group_name_H-M   'P 1'
_cell_length_a   8.61871800
_cell_length_b   8.71217500
_cell_length_c   12.18189500
_cell_angle_alpha   90.00000000
_cell_angle_beta   90.00000000
_cell_angle_gamma   90.00000000
_symmetry_Int_Tables_number   1
_chemical_formula_structural   Cu5NiC3
_chemical_formula_sum   'Cu20 Ni4 C12'
_cell_volume   914.71144555
_cell_formula_units_Z   4
loop_
 _symmetry_equiv_pos_site_id
 _symmetry_equiv_pos_as_xyz
  1  'x, y, z'
loop_
 _atom_site_type_symbol
 _atom_site_label
 _atom_site_symmetry_multiplicity
 _atom_site_fract_x
 _atom_site_fract_y
 _atom_site_fract_z
 _atom_site_occupancy
  C  C0  1  0.51121800  0.10995900  0.20293600  1
  C  C1  1  0.98878200  0.39004100  0.70293600  1
  C  C2  1  0.01121800  0.89004100  0.79706400  1
  C  C3  1  0.48878200  0.60995900  0.29706400  1
  C  C4  1  0.48878200  0.89004100  0.79706400  1
  C  C5  1  0.01121800  0.60995900  0.29706400  1
  C  C6  1  0.98878200  0.10995900  0.20293600  1
  C  C7  1  0.51121800  0.39004100  0.70293600  1
  C  C8  1  0.25000000  0.11007900  0.50934000  1
  C  C9  1  0.25000000  0.38992100  0.00934000  1
  C  C10  1  0.75000000  0.88992100  0.49066000  1
  C  C11  1  0.75000000  0.61007900  0.99066000  1
  Ni  Ni12  1  0.25000000  0.81785400  0.09252500  1
  Ni  Ni13  1  0.25000000  0.68214600  0.59252500  1
  Ni  Ni14  1  0.75000000  0.18214600  0.90747500  1
  Ni  Ni15  1  0.75000000  0.31785400  0.40747500  1
  Cu  Cu16  1  0.95546400  0.13998100  0.42804100  1
  Cu  Cu17  1  0.54453600  0.36001900  0.92804100  1
  Cu  Cu18  1  0.45546400  0.86001900  0.57195900  1
  Cu  Cu19  1  0.04453600  0.63998100  0.07195900  1
  Cu  Cu20  1  0.04453600  0.86001900  0.57195900  1
  Cu  Cu21  1  0.45546400  0.63998100  0.07195900  1
  Cu  Cu22  1  0.54453600  0.13998100  0.42804100  1
  Cu  Cu23  1  0.95546400  0.36001900  0.92804100  1
  Cu  Cu24  1  0.25000000  0.02199800  0.96204800  1
  Cu  Cu25  1  0.25000000  0.47800200  0.46204800  1
  Cu  Cu26  1  0.75000000  0.97800200  0.03795200  1
  Cu  Cu27  1  0.75000000  0.52199800  0.53795200  1
  Cu  Cu28  1  0.25000000  0.29707100  0.21945700  1
  Cu  Cu29  1  0.25000000  0.20292900  0.71945700  1
  Cu  Cu30  1  0.75000000  0.70292900  0.78054300  1
  Cu  Cu31  1  0.75000000  0.79707100  0.28054300  1
  Cu  Cu32  1  0.25000000  0.86772500  0.28961600  1
  Cu  Cu33  1  0.25000000  0.63227500  0.78961600  1
  Cu  Cu34  1  0.75000000  0.13227500  0.71038400  1
  Cu  Cu35  1  0.75000000  0.36772500  0.21038400  1
