# generated using pymatgen
data_Cu2NiC7
_symmetry_space_group_name_H-M   'P 1'
_cell_length_a   7.13633558
_cell_length_b   7.13633558
_cell_length_c   5.72381140
_cell_angle_alpha   78.81997234
_cell_angle_beta   78.81997234
_cell_angle_gamma   85.06236057
_symmetry_Int_Tables_number   1
_chemical_formula_structural   Cu2NiC7
_chemical_formula_sum   'Cu4 Ni2 C14'
_cell_volume   280.18339762
_cell_formula_units_Z   2
loop_
 _symmetry_equiv_pos_site_id
 _symmetry_equiv_pos_as_xyz
  1  'x, y, z'
loop_
 _atom_site_type_symbol
 _atom_site_label
 _atom_site_symmetry_multiplicity
 _atom_site_fract_x
 _atom_site_fract_y
 _atom_site_fract_z
 _atom_site_occupancy
  C  C0  1  0.31177600  0.68822400  0.75000000  1
  C  C1  1  0.68822400  0.31177600  0.25000000  1
  Ni  Ni2  1  0.89597900  0.10402100  0.75000000  1
  Ni  Ni3  1  0.10402100  0.89597900  0.25000000  1
  Cu  Cu4  1  0.19548800  0.37354800  0.29191500  1
  Cu  Cu5  1  0.80451200  0.62645200  0.70808500  1
  Cu  Cu6  1  0.62645200  0.80451200  0.20808500  1
  Cu  Cu7  1  0.37354800  0.19548800  0.79191500  1
  C  C8  1  0.63418400  0.66542100  0.97612900  1
  C  C9  1  0.33457900  0.36581600  0.52387100  1
  C  C10  1  0.36581600  0.33457900  0.02387100  1
  C  C11  1  0.66542100  0.63418400  0.47612900  1
  C  C12  1  0.39754100  0.90525500  0.28505500  1
  C  C13  1  0.09474500  0.60245900  0.21494500  1
  C  C14  1  0.60245900  0.09474500  0.71494500  1
  C  C15  1  0.90525500  0.39754100  0.78505500  1
  C  C16  1  0.96182400  0.81847100  0.62899600  1
  C  C17  1  0.18152900  0.03817600  0.87100400  1
  C  C18  1  0.03817600  0.18152900  0.37100400  1
  C  C19  1  0.81847100  0.96182400  0.12899600  1
