# generated using pymatgen
data_Cu11Ni5C12
_symmetry_space_group_name_H-M   'P 1'
_cell_length_a   6.03312084
_cell_length_b   6.03312084
_cell_length_c   10.50870803
_cell_angle_alpha   72.80796019
_cell_angle_beta   72.80796019
_cell_angle_gamma   59.02780780
_symmetry_Int_Tables_number   1
_chemical_formula_structural   Cu11Ni5C12
_chemical_formula_sum   'Cu11 Ni5 C12'
_cell_volume   308.46677175
_cell_formula_units_Z   1
loop_
 _symmetry_equiv_pos_site_id
 _symmetry_equiv_pos_as_xyz
  1  'x, y, z'
loop_
 _atom_site_type_symbol
 _atom_site_label
 _atom_site_symmetry_multiplicity
 _atom_site_fract_x
 _atom_site_fract_y
 _atom_site_fract_z
 _atom_site_occupancy
  C  C0  1  0.37625500  0.37625500  0.87381700  1
  C  C1  1  0.19472800  0.19472800  0.44532700  1
  C  C2  1  0.50236800  0.50236800  0.50623500  1
  C  C3  1  0.86831300  0.86831300  0.37541000  1
  C  C4  1  0.44051100  0.44051100  0.19053300  1
  C  C5  1  0.00884900  0.00884900  0.99326900  1
  C  C6  1  0.93035800  0.93035800  0.68789100  1
  C  C7  1  0.69404700  0.69404700  0.91714500  1
  C  C8  1  0.97016300  0.42489400  0.18349000  1
  C  C9  1  0.47559500  0.92100700  0.68898200  1
  C  C10  1  0.92100700  0.47559500  0.68898200  1
  C  C11  1  0.42489400  0.97016300  0.18349000  1
  Ni  Ni12  1  0.57521700  0.57521700  0.81273500  1
  Ni  Ni13  1  0.57111400  0.04293600  0.81213700  1
  Ni  Ni14  1  0.04293600  0.57111400  0.81213700  1
  Ni  Ni15  1  0.30685400  0.30685400  0.07769900  1
  Ni  Ni16  1  0.81220700  0.81220700  0.56883100  1
  Cu  Cu17  1  0.07253600  0.07253600  0.79624900  1
  Cu  Cu18  1  0.30417200  0.83998600  0.56952100  1
  Cu  Cu19  1  0.83998600  0.30417200  0.56952100  1
  Cu  Cu20  1  0.07007000  0.54232100  0.30836500  1
  Cu  Cu21  1  0.54232100  0.07007000  0.30836500  1
  Cu  Cu22  1  0.06812500  0.06812500  0.31610900  1
  Cu  Cu23  1  0.80575000  0.80575000  0.06633400  1
  Cu  Cu24  1  0.58580300  0.58580300  0.29010000  1
  Cu  Cu25  1  0.30285800  0.30285800  0.56980700  1
  Cu  Cu26  1  0.80457100  0.34061600  0.07129900  1
  Cu  Cu27  1  0.34061600  0.80457100  0.07129900  1
