# generated using pymatgen
data_Cu3Ni3C7
_symmetry_space_group_name_H-M   'P 1'
_cell_length_a   6.28941457
_cell_length_b   6.28941457
_cell_length_c   6.28941522
_cell_angle_alpha   96.57231601
_cell_angle_beta   96.57231601
_cell_angle_gamma   96.57231215
_symmetry_Int_Tables_number   1
_chemical_formula_structural   Cu3Ni3C7
_chemical_formula_sum   'Cu6 Ni6 C14'
_cell_volume   243.46997635
_cell_formula_units_Z   2
loop_
 _symmetry_equiv_pos_site_id
 _symmetry_equiv_pos_as_xyz
  1  'x, y, z'
loop_
 _atom_site_type_symbol
 _atom_site_label
 _atom_site_symmetry_multiplicity
 _atom_site_fract_x
 _atom_site_fract_y
 _atom_site_fract_z
 _atom_site_occupancy
  C  C0  1  0.50000000  0.50000000  0.50000000  1
  C  C1  1  0.00000000  0.00000000  0.00000000  1
  C  C2  1  0.81461600  0.94050400  0.58153000  1
  C  C3  1  0.24324800  0.83739900  0.30708300  1
  C  C4  1  0.58153000  0.81461600  0.94050400  1
  C  C5  1  0.69291700  0.75675200  0.16260100  1
  C  C6  1  0.16260100  0.69291700  0.75675200  1
  C  C7  1  0.94050400  0.58153000  0.81461600  1
  C  C8  1  0.05949600  0.41847000  0.18538400  1
  C  C9  1  0.83739900  0.30708300  0.24324800  1
  C  C10  1  0.30708300  0.24324800  0.83739900  1
  C  C11  1  0.41847000  0.18538400  0.05949600  1
  C  C12  1  0.75675200  0.16260100  0.69291700  1
  C  C13  1  0.18538400  0.05949600  0.41847000  1
  Ni  Ni14  1  0.13394200  0.93618300  0.30681600  1
  Ni  Ni15  1  0.69318400  0.86605800  0.06381700  1
  Ni  Ni16  1  0.06381700  0.69318400  0.86605800  1
  Ni  Ni17  1  0.93618300  0.30681600  0.13394200  1
  Ni  Ni18  1  0.30681600  0.13394200  0.93618300  1
  Ni  Ni19  1  0.86605800  0.06381700  0.69318400  1
  Cu  Cu20  1  0.43094000  0.75520600  0.65288300  1
  Cu  Cu21  1  0.75520600  0.65288300  0.43094000  1
  Cu  Cu22  1  0.34711700  0.56906000  0.24479400  1
  Cu  Cu23  1  0.65288300  0.43094000  0.75520600  1
  Cu  Cu24  1  0.24479400  0.34711700  0.56906000  1
  Cu  Cu25  1  0.56906000  0.24479400  0.34711700  1
