# generated using pymatgen
data_Cu4NiC11
_symmetry_space_group_name_H-M   'P 1'
_cell_length_a   5.25851500
_cell_length_b   7.85472500
_cell_length_c   12.08244346
_cell_angle_alpha   67.24685981
_cell_angle_beta   90.00000000
_cell_angle_gamma   90.00000000
_symmetry_Int_Tables_number   1
_chemical_formula_structural   Cu4NiC11
_chemical_formula_sum   'Cu8 Ni2 C22'
_cell_volume   460.21891771
_cell_formula_units_Z   2
loop_
 _symmetry_equiv_pos_site_id
 _symmetry_equiv_pos_as_xyz
  1  'x, y, z'
loop_
 _atom_site_type_symbol
 _atom_site_label
 _atom_site_symmetry_multiplicity
 _atom_site_fract_x
 _atom_site_fract_y
 _atom_site_fract_z
 _atom_site_occupancy
  C  C0  1  0.25404900  0.50000000  0.75000000  1
  C  C1  1  0.74595100  0.50000000  0.25000000  1
  Ni  Ni2  1  0.75363500  0.50000000  0.75000000  1
  Ni  Ni3  1  0.24636500  0.50000000  0.25000000  1
  Cu  Cu4  1  0.47919300  0.79401900  0.50012000  1
  Cu  Cu5  1  0.01997300  0.20596400  0.64766300  1
  Cu  Cu6  1  0.01997300  0.79403600  0.85233700  1
  Cu  Cu7  1  0.47919300  0.20598100  0.99988000  1
  Cu  Cu8  1  0.52080700  0.79401900  0.00012000  1
  Cu  Cu9  1  0.98002700  0.20596400  0.14766300  1
  Cu  Cu10  1  0.98002700  0.79403600  0.35233700  1
  Cu  Cu11  1  0.52080700  0.20598100  0.49988000  1
  C  C12  1  0.50000000  0.00000000  0.50000000  1
  C  C13  1  0.51438200  0.63875500  0.63511400  1
  C  C14  1  0.99318600  0.36033200  0.70588100  1
  C  C15  1  0.80444200  0.23646800  0.54437000  1
  C  C16  1  0.30495500  0.22867900  0.59023700  1
  C  C17  1  0.99318600  0.63966800  0.79411900  1
  C  C18  1  0.51438200  0.36124500  0.86488600  1
  C  C19  1  0.98460400  0.00000000  0.75000000  1
  C  C20  1  0.30495500  0.77132100  0.90976300  1
  C  C21  1  0.19555800  0.23646800  0.04437000  1
  C  C22  1  0.80444200  0.76353200  0.95563000  1
  C  C23  1  0.69504500  0.22867900  0.09023700  1
  C  C24  1  0.50000000  0.00000000  0.00000000  1
  C  C25  1  0.01539600  0.00000000  0.25000000  1
  C  C26  1  0.48561800  0.63875500  0.13511400  1
  C  C27  1  0.00681400  0.36033200  0.20588100  1
  C  C28  1  0.69504500  0.77132100  0.40976300  1
  C  C29  1  0.19555800  0.76353200  0.45563000  1
  C  C30  1  0.00681400  0.63966800  0.29411900  1
  C  C31  1  0.48561800  0.36124500  0.36488600  1
