# generated using pymatgen
data_Cu3Ni6C41
_symmetry_space_group_name_H-M   'P 1'
_cell_length_a   9.56266217
_cell_length_b   9.56266217
_cell_length_c   9.56266215
_cell_angle_alpha   113.72685597
_cell_angle_beta   113.72685597
_cell_angle_gamma   113.72685344
_symmetry_Int_Tables_number   1
_chemical_formula_structural   Cu3Ni6C41
_chemical_formula_sum   'Cu3 Ni6 C41'
_cell_volume   541.86669486
_cell_formula_units_Z   1
loop_
 _symmetry_equiv_pos_site_id
 _symmetry_equiv_pos_as_xyz
  1  'x, y, z'
loop_
 _atom_site_type_symbol
 _atom_site_label
 _atom_site_symmetry_multiplicity
 _atom_site_fract_x
 _atom_site_fract_y
 _atom_site_fract_z
 _atom_site_occupancy
  C  C0  1  0.21955200  0.21955200  0.21955200  1
  C  C1  1  0.90486400  0.56639100  0.34893200  1
  C  C2  1  0.34893200  0.90486400  0.56639100  1
  C  C3  1  0.56639100  0.34893200  0.90486400  1
  C  C4  1  0.34893200  0.56639100  0.90486400  1
  C  C5  1  0.90486400  0.34893200  0.56639100  1
  C  C6  1  0.56639100  0.90486400  0.34893200  1
  C  C7  1  0.76023500  0.56598700  0.56598700  1
  C  C8  1  0.56598700  0.76023500  0.56598700  1
  C  C9  1  0.56598700  0.56598700  0.76023500  1
  Ni  Ni10  1  0.19329100  0.00036100  0.80974400  1
  Ni  Ni11  1  0.80974400  0.19329100  0.00036100  1
  Ni  Ni12  1  0.00036100  0.80974400  0.19329100  1
  Ni  Ni13  1  0.80974400  0.00036100  0.19329100  1
  Ni  Ni14  1  0.19329100  0.80974400  0.00036100  1
  Ni  Ni15  1  0.00036100  0.19329100  0.80974400  1
  Cu  Cu16  1  0.56537900  0.56537900  0.23144300  1
  Cu  Cu17  1  0.23144300  0.56537900  0.56537900  1
  Cu  Cu18  1  0.56537900  0.23144300  0.56537900  1
  C  C19  1  0.75613000  0.75613000  0.75613000  1
  C  C20  1  0.54428800  0.54428800  0.35907000  1
  C  C21  1  0.35907000  0.54428800  0.54428800  1
  C  C22  1  0.54428800  0.35907000  0.54428800  1
  C  C23  1  0.79056900  0.39875000  0.39875000  1
  C  C24  1  0.39875000  0.79056900  0.39875000  1
  C  C25  1  0.39875000  0.39875000  0.79056900  1
  C  C26  1  0.16978700  0.16978700  0.88988400  1
  C  C27  1  0.88988400  0.16978800  0.16978800  1
  C  C28  1  0.16978700  0.88988400  0.16978700  1
  C  C29  1  0.26676000  0.99113400  0.99113400  1
  C  C30  1  0.99113400  0.26676000  0.99113400  1
  C  C31  1  0.99113400  0.99113400  0.26676000  1
  C  C32  1  0.97267900  0.77410900  0.58864200  1
  C  C33  1  0.58864200  0.97267900  0.77410900  1
  C  C34  1  0.77410900  0.58864200  0.97267900  1
  C  C35  1  0.58864200  0.77410900  0.97267900  1
  C  C36  1  0.97267900  0.58864200  0.77410900  1
  C  C37  1  0.77410900  0.97267900  0.58864200  1
  C  C38  1  0.36409100  0.07925300  0.79117400  1
  C  C39  1  0.79117400  0.36409100  0.07925300  1
  C  C40  1  0.07925300  0.79117400  0.36409100  1
  C  C41  1  0.79117400  0.07925300  0.36409100  1
  C  C42  1  0.36409100  0.79117400  0.07925300  1
  C  C43  1  0.07925300  0.36409100  0.79117400  1
  C  C44  1  0.65273400  0.50336700  0.17115800  1
  C  C45  1  0.17115800  0.65273400  0.50336700  1
  C  C46  1  0.50336700  0.17115800  0.65273400  1
  C  C47  1  0.17115800  0.50336700  0.65273400  1
  C  C48  1  0.65273400  0.17115800  0.50336700  1
  C  C49  1  0.50336700  0.65273400  0.17115800  1
