# generated using pymatgen
data_Cu19NiC10
_symmetry_space_group_name_H-M   'P 1'
_cell_length_a   4.79519811
_cell_length_b   4.79519811
_cell_length_c   16.56307700
_cell_angle_alpha   90.00000000
_cell_angle_beta   90.00000000
_cell_angle_gamma   90.61670638
_symmetry_Int_Tables_number   1
_chemical_formula_structural   Cu19NiC10
_chemical_formula_sum   'Cu19 Ni1 C10'
_cell_volume   380.82808818
_cell_formula_units_Z   1
loop_
 _symmetry_equiv_pos_site_id
 _symmetry_equiv_pos_as_xyz
  1  'x, y, z'
loop_
 _atom_site_type_symbol
 _atom_site_label
 _atom_site_symmetry_multiplicity
 _atom_site_fract_x
 _atom_site_fract_y
 _atom_site_fract_z
 _atom_site_occupancy
  C  C0  1  0.00936900  0.00936900  0.59528900  1
  C  C1  1  0.00936900  0.00936900  0.40471100  1
  C  C2  1  0.99950300  0.99950300  0.20085900  1
  C  C3  1  0.00008600  0.00008600  0.00000000  1
  C  C4  1  0.99950300  0.99950300  0.79914100  1
  C  C5  1  0.47524600  0.47524600  0.50000000  1
  C  C6  1  0.49985400  0.49985400  0.09987400  1
  C  C7  1  0.50238100  0.50238100  0.30013500  1
  C  C8  1  0.49985400  0.49985400  0.90012600  1
  C  C9  1  0.50238100  0.50238100  0.69986500  1
  Ni  Ni10  1  0.20471700  0.20471700  0.50000000  1
  Cu  Cu11  1  0.20100100  0.20100100  0.30002900  1
  Cu  Cu12  1  0.19885900  0.19885900  0.10013900  1
  Cu  Cu13  1  0.19885900  0.19885900  0.89986100  1
  Cu  Cu14  1  0.20100100  0.20100100  0.69997100  1
  Cu  Cu15  1  0.69468800  0.30836900  0.59633100  1
  Cu  Cu16  1  0.69468800  0.30836900  0.40366900  1
  Cu  Cu17  1  0.69977600  0.30046000  0.20010800  1
  Cu  Cu18  1  0.70003200  0.29990800  0.00000000  1
  Cu  Cu19  1  0.69977600  0.30046000  0.79989200  1
  Cu  Cu20  1  0.30836900  0.69468800  0.59633100  1
  Cu  Cu21  1  0.30836900  0.69468800  0.40366900  1
  Cu  Cu22  1  0.30046000  0.69977600  0.20010800  1
  Cu  Cu23  1  0.29990800  0.70003200  0.00000000  1
  Cu  Cu24  1  0.30046000  0.69977600  0.79989200  1
  Cu  Cu25  1  0.78205500  0.78205500  0.50000000  1
  Cu  Cu26  1  0.80090400  0.80090400  0.10017300  1
  Cu  Cu27  1  0.80381600  0.80381600  0.30260000  1
  Cu  Cu28  1  0.80381600  0.80381600  0.69740000  1
  Cu  Cu29  1  0.80090400  0.80090400  0.89982700  1
