# generated using pymatgen
data_CuNi2C9
_symmetry_space_group_name_H-M   'P 1'
_cell_length_a   5.10047314
_cell_length_b   8.62988200
_cell_length_c   9.59007968
_cell_angle_alpha   90.00001170
_cell_angle_beta   100.97232119
_cell_angle_gamma   90.00000221
_symmetry_Int_Tables_number   1
_chemical_formula_structural   CuNi2C9
_chemical_formula_sum   'Cu4 Ni8 C36'
_cell_volume   414.40486309
_cell_formula_units_Z   4
loop_
 _symmetry_equiv_pos_site_id
 _symmetry_equiv_pos_as_xyz
  1  'x, y, z'
loop_
 _atom_site_type_symbol
 _atom_site_label
 _atom_site_symmetry_multiplicity
 _atom_site_fract_x
 _atom_site_fract_y
 _atom_site_fract_z
 _atom_site_occupancy
  C  C0  1  0.00000000  0.50000000  0.50000000  1
  C  C1  1  0.25000100  0.00000000  0.75000000  1
  C  C2  1  0.50000000  0.50000000  0.00000000  1
  C  C3  1  0.75000000  0.00000000  0.25000000  1
  C  C4  1  0.00000100  0.16756200  0.50000000  1
  C  C5  1  0.25000000  0.66756200  0.75000000  1
  C  C6  1  0.50000000  0.16756200  0.00000000  1
  C  C7  1  0.75000000  0.66756200  0.25000000  1
  C  C8  1  0.00000100  0.83243800  0.50000000  1
  C  C9  1  0.25000000  0.33243800  0.75000000  1
  C  C10  1  0.50000000  0.83243800  0.00000000  1
  C  C11  1  0.75000000  0.33243900  0.25000000  1
  Ni  Ni12  1  0.50000100  0.33328200  0.50000100  1
  Ni  Ni13  1  0.75000000  0.83328300  0.74999900  1
  Ni  Ni14  1  0.00000000  0.33328300  0.00000000  1
  Ni  Ni15  1  0.25000000  0.83328300  0.25000000  1
  Ni  Ni16  1  0.50000100  0.66671800  0.50000100  1
  Ni  Ni17  1  0.75000000  0.16671800  0.74999900  1
  Ni  Ni18  1  0.00000000  0.66671800  0.00000000  1
  Ni  Ni19  1  0.25000000  0.16671800  0.25000000  1
  Cu  Cu20  1  0.50000700  0.99999900  0.50000000  1
  Cu  Cu21  1  0.74999400  0.49999000  0.75000300  1
  Cu  Cu22  1  0.99999300  0.99999900  0.99999100  1
  Cu  Cu23  1  0.24999800  0.49999900  0.25000400  1
  C  C24  1  0.39553400  0.50000000  0.61368800  1
  C  C25  1  0.64553400  0.00000000  0.86368900  1
  C  C26  1  0.89553400  0.50000000  0.11368900  1
  C  C27  1  0.14553400  0.00000000  0.36368800  1
  C  C28  1  0.60446700  0.50000000  0.38631100  1
  C  C29  1  0.85446700  0.00000000  0.63631200  1
  C  C30  1  0.10446700  0.50000000  0.88631200  1
  C  C31  1  0.35446700  0.00000000  0.13631100  1
  C  C32  1  0.84391400  0.67293000  0.62693300  1
  C  C33  1  0.09391200  0.17293100  0.87693500  1
  C  C34  1  0.34391300  0.67293100  0.12693300  1
  C  C35  1  0.59391100  0.17293100  0.37693400  1
  C  C36  1  0.84391400  0.32707000  0.62693300  1
  C  C37  1  0.09391200  0.82707000  0.87693400  1
  C  C38  1  0.34391300  0.32706900  0.12693400  1
  C  C39  1  0.59391100  0.82707000  0.37693300  1
  C  C40  1  0.15608800  0.67293000  0.37306500  1
  C  C41  1  0.40608600  0.17293000  0.62306700  1
  C  C42  1  0.65608900  0.67293100  0.87306600  1
  C  C43  1  0.90608700  0.17293100  0.12306700  1
  C  C44  1  0.15608800  0.32707000  0.37306500  1
  C  C45  1  0.40608600  0.82707000  0.62306700  1
  C  C46  1  0.65608900  0.32707000  0.87306600  1
  C  C47  1  0.90608800  0.82706900  0.12306700  1
