# generated using pymatgen
data_CuNiC7
_symmetry_space_group_name_H-M   'P 1'
_cell_length_a   5.74907900
_cell_length_b   5.74907900
_cell_length_c   8.32085500
_cell_angle_alpha   90.00000000
_cell_angle_beta   90.00000000
_cell_angle_gamma   90.00000000
_symmetry_Int_Tables_number   1
_chemical_formula_structural   CuNiC7
_chemical_formula_sum   'Cu2 Ni2 C14'
_cell_volume   275.02014516
_cell_formula_units_Z   2
loop_
 _symmetry_equiv_pos_site_id
 _symmetry_equiv_pos_as_xyz
  1  'x, y, z'
loop_
 _atom_site_type_symbol
 _atom_site_label
 _atom_site_symmetry_multiplicity
 _atom_site_fract_x
 _atom_site_fract_y
 _atom_site_fract_z
 _atom_site_occupancy
  C  C0  1  0.00000000  0.00000000  0.00000000  1
  C  C1  1  0.50000000  0.50000000  0.00000000  1
  Ni  Ni2  1  0.00000000  0.50000000  0.24089900  1
  Ni  Ni3  1  0.50000000  0.00000000  0.75910100  1
  Cu  Cu4  1  0.00000000  0.00000000  0.50000000  1
  Cu  Cu5  1  0.50000000  0.50000000  0.50000000  1
  C  C6  1  0.50000000  0.00000000  0.25955700  1
  C  C7  1  0.00000000  0.50000000  0.74044300  1
  C  C8  1  0.50000000  0.00000000  0.03534000  1
  C  C9  1  0.26885100  0.76885100  0.33111600  1
  C  C10  1  0.73114900  0.76885100  0.33111600  1
  C  C11  1  0.26885100  0.23114900  0.33111600  1
  C  C12  1  0.73114900  0.23114900  0.33111600  1
  C  C13  1  0.76885100  0.26885100  0.66888400  1
  C  C14  1  0.23114900  0.26885100  0.66888400  1
  C  C15  1  0.76885100  0.73114900  0.66888400  1
  C  C16  1  0.23114900  0.73114900  0.66888400  1
  C  C17  1  0.00000000  0.50000000  0.96466000  1
