# generated using pymatgen
data_Cu(NiC4)3
_symmetry_space_group_name_H-M   'P 1'
_cell_length_a   5.18830000
_cell_length_b   6.00054696
_cell_length_c   10.35904586
_cell_angle_alpha   89.85321184
_cell_angle_beta   99.76347887
_cell_angle_gamma   106.90817166
_symmetry_Int_Tables_number   1
_chemical_formula_structural   Cu(NiC4)3
_chemical_formula_sum   'Cu2 Ni6 C24'
_cell_volume   303.71993204
_cell_formula_units_Z   2
loop_
 _symmetry_equiv_pos_site_id
 _symmetry_equiv_pos_as_xyz
  1  'x, y, z'
loop_
 _atom_site_type_symbol
 _atom_site_label
 _atom_site_symmetry_multiplicity
 _atom_site_fract_x
 _atom_site_fract_y
 _atom_site_fract_z
 _atom_site_occupancy
  C  C0  1  0.49765400  0.24661000  0.25013800  1
  C  C1  1  0.49908600  0.24773100  0.75091300  1
  C  C2  1  0.50000000  0.00000000  0.00000000  1
  C  C3  1  0.50000000  0.00000000  0.50000000  1
  C  C4  1  0.50091400  0.75226900  0.24908700  1
  C  C5  1  0.50234600  0.75339000  0.74986200  1
  C  C6  1  0.50000000  0.50000000  0.00000000  1
  C  C7  1  0.50000000  0.50000000  0.50000000  1
  Ni  Ni8  1  0.99971800  0.12510700  0.37482300  1
  Ni  Ni9  1  0.00028200  0.87489300  0.62517700  1
  Ni  Ni10  1  0.00024600  0.62412700  0.87515300  1
  Ni  Ni11  1  0.99974700  0.62495500  0.37422600  1
  Ni  Ni12  1  0.99975400  0.37587300  0.12484700  1
  Ni  Ni13  1  0.00025300  0.37504500  0.62577400  1
  Cu  Cu14  1  0.00107100  0.12401200  0.87586900  1
  Cu  Cu15  1  0.99892900  0.87598800  0.12413100  1
  C  C16  1  0.77324100  0.06690800  0.18905600  1
  C  C17  1  0.77533100  0.06777900  0.69107900  1
  C  C18  1  0.22465700  0.18001700  0.06073700  1
  C  C19  1  0.22945300  0.18258900  0.56125300  1
  C  C20  1  0.77534300  0.81998300  0.93926300  1
  C  C21  1  0.22675900  0.93309200  0.81094400  1
  C  C22  1  0.77054700  0.81741100  0.43874700  1
  C  C23  1  0.22466900  0.93222100  0.30892100  1
  C  C24  1  0.77151500  0.57068800  0.18738000  1
  C  C25  1  0.22600700  0.68531600  0.06048400  1
  C  C26  1  0.77189300  0.56710200  0.68901600  1
  C  C27  1  0.23068900  0.68268900  0.56049600  1
  C  C28  1  0.77399300  0.31468400  0.93951600  1
  C  C29  1  0.22848500  0.42931200  0.81262000  1
  C  C30  1  0.76931100  0.31731100  0.43950400  1
  C  C31  1  0.22810700  0.43289800  0.31098400  1
