# generated using pymatgen
data_Cu(NiC2)4
_symmetry_space_group_name_H-M   'P 1'
_cell_length_a   6.04106200
_cell_length_b   10.22881600
_cell_length_c   10.59125900
_cell_angle_alpha   90.00000000
_cell_angle_beta   90.00000000
_cell_angle_gamma   90.00000000
_symmetry_Int_Tables_number   1
_chemical_formula_structural   Cu(NiC2)4
_chemical_formula_sum   'Cu4 Ni16 C32'
_cell_volume   654.46473157
_cell_formula_units_Z   4
loop_
 _symmetry_equiv_pos_site_id
 _symmetry_equiv_pos_as_xyz
  1  'x, y, z'
loop_
 _atom_site_type_symbol
 _atom_site_label
 _atom_site_symmetry_multiplicity
 _atom_site_fract_x
 _atom_site_fract_y
 _atom_site_fract_z
 _atom_site_occupancy
  C  C0  1  0.75000000  0.04909700  0.39589600  1
  C  C1  1  0.25000000  0.45090300  0.89589600  1
  C  C2  1  0.75000000  0.40732500  0.43926400  1
  C  C3  1  0.25000000  0.09267500  0.93926400  1
  C  C4  1  0.75000000  0.90732500  0.06073600  1
  C  C5  1  0.25000000  0.59267500  0.56073600  1
  C  C6  1  0.75000000  0.54909700  0.10410400  1
  C  C7  1  0.25000000  0.95090300  0.60410400  1
  Ni  Ni8  1  0.75000000  0.51763000  0.73869500  1
  Ni  Ni9  1  0.25000000  0.98237000  0.23869500  1
  Ni  Ni10  1  0.75000000  0.01763000  0.76130500  1
  Ni  Ni11  1  0.25000000  0.48237000  0.26130500  1
  Ni  Ni12  1  0.75000000  0.29815100  0.92453000  1
  Ni  Ni13  1  0.25000000  0.20184900  0.42453000  1
  Ni  Ni14  1  0.75000000  0.79815100  0.57547000  1
  Ni  Ni15  1  0.25000000  0.70184900  0.07547000  1
  Ni  Ni16  1  0.50338800  0.72740100  0.32989700  1
  Ni  Ni17  1  0.49661200  0.77259900  0.82989700  1
  Ni  Ni18  1  0.99661200  0.22740100  0.17010300  1
  Ni  Ni19  1  0.00338800  0.27259900  0.67010300  1
  Ni  Ni20  1  0.49661200  0.27259900  0.67010300  1
  Ni  Ni21  1  0.50338800  0.22740100  0.17010300  1
  Ni  Ni22  1  0.00338800  0.77259900  0.82989700  1
  Ni  Ni23  1  0.99661200  0.72740100  0.32989700  1
  Cu  Cu24  1  0.75000000  0.20514900  0.76412300  1
  Cu  Cu25  1  0.25000000  0.29485100  0.26412300  1
  Cu  Cu26  1  0.75000000  0.70514900  0.73587700  1
  Cu  Cu27  1  0.25000000  0.79485100  0.23587700  1
  C  C28  1  0.75000000  0.96600000  0.60730800  1
  C  C29  1  0.25000000  0.53400000  0.10730800  1
  C  C30  1  0.00915000  0.72030500  0.98647200  1
  C  C31  1  0.99085000  0.77969500  0.48647200  1
  C  C32  1  0.49085000  0.22030500  0.51352800  1
  C  C33  1  0.50915000  0.27969500  0.01352800  1
  C  C34  1  0.99085000  0.27969500  0.01352800  1
  C  C35  1  0.00915000  0.22030500  0.51352800  1
  C  C36  1  0.50915000  0.77969500  0.48647200  1
  C  C37  1  0.98015900  0.44577600  0.66477100  1
  C  C38  1  0.51984100  0.44577600  0.66477100  1
  C  C39  1  0.48015900  0.05422400  0.16477100  1
  C  C40  1  0.98015900  0.94577600  0.83522900  1
  C  C41  1  0.01984100  0.55422400  0.33522900  1
  C  C42  1  0.25000000  0.23122100  0.74698300  1
  C  C43  1  0.75000000  0.26877900  0.24698300  1
  C  C44  1  0.25000000  0.73122100  0.75301700  1
  C  C45  1  0.75000000  0.76877900  0.25301700  1
  C  C46  1  0.49085000  0.72030500  0.98647200  1
  C  C47  1  0.48015900  0.55422400  0.33522900  1
  C  C48  1  0.51984100  0.94577600  0.83522900  1
  C  C49  1  0.01984100  0.05422400  0.16477100  1
  C  C50  1  0.75000000  0.46600000  0.89269200  1
  C  C51  1  0.25000000  0.03400000  0.39269200  1
