# generated using pymatgen
data_Cu3NiC24
_symmetry_space_group_name_H-M   'P 1'
_cell_length_a   5.94140300
_cell_length_b   4.73233400
_cell_length_c   10.15249461
_cell_angle_alpha   89.98011789
_cell_angle_beta   90.00000000
_cell_angle_gamma   90.00000000
_symmetry_Int_Tables_number   1
_chemical_formula_structural   Cu3NiC24
_chemical_formula_sum   'Cu3 Ni1 C24'
_cell_volume   285.45466282
_cell_formula_units_Z   1
loop_
 _symmetry_equiv_pos_site_id
 _symmetry_equiv_pos_as_xyz
  1  'x, y, z'
loop_
 _atom_site_type_symbol
 _atom_site_label
 _atom_site_symmetry_multiplicity
 _atom_site_fract_x
 _atom_site_fract_y
 _atom_site_fract_z
 _atom_site_occupancy
  C  C0  1  0.24967900  0.00050800  0.00039900  1
  C  C1  1  0.75032100  0.00050800  0.00039900  1
  C  C2  1  0.74959600  0.49890300  0.50042400  1
  C  C3  1  0.25040400  0.49890300  0.50042400  1
  Ni  Ni4  1  0.00000000  0.97518700  0.27895800  1
  Cu  Cu5  1  0.50000000  0.01974600  0.72494800  1
  Cu  Cu6  1  0.50000000  0.48029200  0.22334500  1
  Cu  Cu7  1  0.00000000  0.52002700  0.77611500  1
  C  C8  1  0.00000000  0.08418000  0.59541800  1
  C  C9  1  0.00000000  0.41698200  0.09325300  1
  C  C10  1  0.50000000  0.58436100  0.90566700  1
  C  C11  1  0.50000000  0.91617200  0.40574200  1
  C  C12  1  0.00000000  0.20205800  0.45250500  1
  C  C13  1  0.20753300  0.22568400  0.66589000  1
  C  C14  1  0.79246700  0.22568400  0.66589000  1
  C  C15  1  0.50000000  0.23977400  0.39983500  1
  C  C16  1  0.50000000  0.26031200  0.89981400  1
  C  C17  1  0.20718100  0.27608000  0.16426700  1
  C  C18  1  0.79281900  0.27608000  0.16426700  1
  C  C19  1  0.00000000  0.29853500  0.95014200  1
  C  C20  1  0.50000000  0.70169000  0.04870300  1
  C  C21  1  0.70704100  0.72620400  0.83441900  1
  C  C22  1  0.29295900  0.72620400  0.83441900  1
  C  C23  1  0.00000000  0.74058900  0.09827600  1
  C  C24  1  0.00000000  0.75987500  0.59984000  1
  C  C25  1  0.70602600  0.77317200  0.33392900  1
  C  C26  1  0.29397400  0.77317200  0.33392900  1
  C  C27  1  0.50000000  0.79911700  0.54878600  1
