# generated using pymatgen
data_Cu3NiC3
_symmetry_space_group_name_H-M   'P 1'
_cell_length_a   6.26688384
_cell_length_b   10.89477569
_cell_length_c   6.41879977
_cell_angle_alpha   106.38799895
_cell_angle_beta   119.23061131
_cell_angle_gamma   89.98219692
_symmetry_Int_Tables_number   1
_chemical_formula_structural   Cu3NiC3
_chemical_formula_sum   'Cu12 Ni4 C12'
_cell_volume   361.92811719
_cell_formula_units_Z   4
loop_
 _symmetry_equiv_pos_site_id
 _symmetry_equiv_pos_as_xyz
  1  'x, y, z'
loop_
 _atom_site_type_symbol
 _atom_site_label
 _atom_site_symmetry_multiplicity
 _atom_site_fract_x
 _atom_site_fract_y
 _atom_site_fract_z
 _atom_site_occupancy
  C  C0  1  0.46496500  0.48836400  0.92949500  1
  C  C1  1  0.96500900  0.98838500  0.92939600  1
  C  C2  1  0.41088000  0.13673300  0.82111500  1
  C  C3  1  0.91073800  0.63675000  0.82103500  1
  C  C4  1  0.93769000  0.31280800  0.87590200  1
  C  C5  1  0.43700000  0.81212300  0.87457100  1
  C  C6  1  0.18719100  0.56268000  0.37507800  1
  C  C7  1  0.43894300  0.81326000  0.37597000  1
  C  C8  1  0.43822400  0.31183500  0.37442800  1
  C  C9  1  0.68670700  0.06270000  0.37506200  1
  C  C10  1  0.93891600  0.31327000  0.37616000  1
  C  C11  1  0.93802900  0.81180600  0.37427300  1
  Ni  Ni12  1  0.27480800  0.42475600  0.54850800  1
  Ni  Ni13  1  0.77480000  0.92474500  0.54853700  1
  Ni  Ni14  1  0.60100800  0.20050000  0.20078500  1
  Ni  Ni15  1  0.10108000  0.70048800  0.20084500  1
  Cu  Cu16  1  0.07005700  0.19303300  0.64832400  1
  Cu  Cu17  1  0.57097600  0.69228300  0.64801000  1
  Cu  Cu18  1  0.04923200  0.18479700  0.09877400  1
  Cu  Cu19  1  0.54972100  0.68476400  0.09864000  1
  Cu  Cu20  1  0.57812200  0.19273800  0.65118000  1
  Cu  Cu21  1  0.07820600  0.69301800  0.65141400  1
  Cu  Cu22  1  0.80164600  0.43207800  0.09830700  1
  Cu  Cu23  1  0.30178100  0.93249200  0.09822000  1
  Cu  Cu24  1  0.29713600  0.43253500  0.10196000  1
  Cu  Cu25  1  0.79575000  0.93168800  0.10186100  1
  Cu  Cu26  1  0.82581100  0.43969000  0.65113200  1
  Cu  Cu27  1  0.32557300  0.93968200  0.65102000  1
