# generated using pymatgen
data_Cu3Ni2C23
_symmetry_space_group_name_H-M   'P 1'
_cell_length_a   6.09296203
_cell_length_b   6.09296203
_cell_length_c   10.04940386
_cell_angle_alpha   89.87736306
_cell_angle_beta   89.87736306
_cell_angle_gamma   60.53571517
_symmetry_Int_Tables_number   1
_chemical_formula_structural   Cu3Ni2C23
_chemical_formula_sum   'Cu3 Ni2 C23'
_cell_volume   324.82222538
_cell_formula_units_Z   1
loop_
 _symmetry_equiv_pos_site_id
 _symmetry_equiv_pos_as_xyz
  1  'x, y, z'
loop_
 _atom_site_type_symbol
 _atom_site_label
 _atom_site_symmetry_multiplicity
 _atom_site_fract_x
 _atom_site_fract_y
 _atom_site_fract_z
 _atom_site_occupancy
  C  C0  1  0.33313300  0.33313300  0.90348900  1
  C  C1  1  0.99308100  0.99308100  0.00441600  1
  C  C2  1  0.99067900  0.99067900  0.49139400  1
  C  C3  1  0.66360300  0.66360300  0.37340800  1
  Ni  Ni4  1  0.34319300  0.34319300  0.48102500  1
  Ni  Ni5  1  0.67123200  0.67123200  0.01618900  1
  C  C6  1  0.17111300  0.17111300  0.21627000  1
  C  C7  1  0.33985500  0.83492500  0.71533900  1
  C  C8  1  0.83492500  0.33985500  0.71533900  1
  Cu  Cu9  1  0.16809700  0.66409800  0.21505600  1
  Cu  Cu10  1  0.66409800  0.16809700  0.21505600  1
  Cu  Cu11  1  0.83325900  0.83325900  0.71499400  1
  C  C12  1  0.15850800  0.69288900  0.60821100  1
  C  C13  1  0.48223500  0.48223500  0.32854300  1
  C  C14  1  0.33151700  0.33151700  0.10446500  1
  C  C15  1  0.99978200  0.99978200  0.31300800  1
  C  C16  1  0.00006000  0.00006000  0.81746400  1
  C  C17  1  0.69288900  0.15850800  0.60821100  1
  C  C18  1  0.02873900  0.47856300  0.33169800  1
  C  C19  1  0.47856300  0.02873900  0.33169800  1
  C  C20  1  0.84461600  0.84461600  0.10829000  1
  C  C21  1  0.15824900  0.15824900  0.60483200  1
  C  C22  1  0.50990400  0.96916600  0.82690300  1
  C  C23  1  0.96916600  0.50990400  0.82690300  1
  C  C24  1  0.66601200  0.66601200  0.60432700  1
  C  C25  1  0.31010800  0.84956400  0.10359400  1
  C  C26  1  0.51326000  0.51326000  0.82415700  1
  C  C27  1  0.84956400  0.31010800  0.10359400  1
