# generated using pymatgen
data_Cu12Ni2C9
_symmetry_space_group_name_H-M   'P 1'
_cell_length_a   6.91700767
_cell_length_b   6.91700767
_cell_length_c   6.00131726
_cell_angle_alpha   71.94743210
_cell_angle_beta   71.94743210
_cell_angle_gamma   69.71206704
_symmetry_Int_Tables_number   1
_chemical_formula_structural   Cu12Ni2C9
_chemical_formula_sum   'Cu12 Ni2 C9'
_cell_volume   249.37716076
_cell_formula_units_Z   1
loop_
 _symmetry_equiv_pos_site_id
 _symmetry_equiv_pos_as_xyz
  1  'x, y, z'
loop_
 _atom_site_type_symbol
 _atom_site_label
 _atom_site_symmetry_multiplicity
 _atom_site_fract_x
 _atom_site_fract_y
 _atom_site_fract_z
 _atom_site_occupancy
  C  C0  1  0.00000000  0.00000000  0.00000000  1
  C  C1  1  0.24133700  0.04243000  0.26329700  1
  C  C2  1  0.04243000  0.24133700  0.26329700  1
  C  C3  1  0.61948200  0.28188400  0.13472700  1
  C  C4  1  0.71811600  0.38051800  0.86527300  1
  C  C5  1  0.28188400  0.61948200  0.13472700  1
  C  C6  1  0.38051800  0.71811600  0.86527300  1
  C  C7  1  0.95757000  0.75866300  0.73670300  1
  C  C8  1  0.75866300  0.95757000  0.73670300  1
  Ni  Ni9  1  0.30192300  0.30192300  0.60274800  1
  Ni  Ni10  1  0.69807700  0.69807700  0.39725200  1
  Cu  Cu11  1  0.11618600  0.11618600  0.19616300  1
  Cu  Cu12  1  0.16312300  0.16312300  0.65876000  1
  Cu  Cu13  1  0.48791400  0.18665400  0.69931000  1
  Cu  Cu14  1  0.74273000  0.25727000  0.00000000  1
  Cu  Cu15  1  0.36390300  0.36390300  0.33809800  1
  Cu  Cu16  1  0.18665400  0.48791400  0.69931000  1
  Cu  Cu17  1  0.81334600  0.51208600  0.30069000  1
  Cu  Cu18  1  0.63609700  0.63609700  0.66190200  1
  Cu  Cu19  1  0.25727000  0.74273000  0.00000000  1
  Cu  Cu20  1  0.51208600  0.81334600  0.30069000  1
  Cu  Cu21  1  0.83687700  0.83687700  0.34124000  1
  Cu  Cu22  1  0.88381400  0.88381400  0.80383700  1
