# generated using pymatgen
data_Cu4Ni4C
_symmetry_space_group_name_H-M   'P 1'
_cell_length_a   11.02351800
_cell_length_b   11.02351800
_cell_length_c   11.02351800
_cell_angle_alpha   90.00000000
_cell_angle_beta   90.00000000
_cell_angle_gamma   90.00000000
_symmetry_Int_Tables_number   1
_chemical_formula_structural   Cu4Ni4C
_chemical_formula_sum   'Cu32 Ni32 C8'
_cell_volume   1339.55529919
_cell_formula_units_Z   8
loop_
 _symmetry_equiv_pos_site_id
 _symmetry_equiv_pos_as_xyz
  1  'x, y, z'
loop_
 _atom_site_type_symbol
 _atom_site_label
 _atom_site_symmetry_multiplicity
 _atom_site_fract_x
 _atom_site_fract_y
 _atom_site_fract_z
 _atom_site_occupancy
  C  C0  1  0.37812300  0.62187700  0.12187700  1
  C  C1  1  0.62187700  0.12187700  0.37812300  1
  C  C2  1  0.12187700  0.37812300  0.62187700  1
  C  C3  1  0.87812300  0.87812300  0.87812300  1
  C  C4  1  0.62187700  0.37812300  0.87812300  1
  C  C5  1  0.37812300  0.87812300  0.62187700  1
  C  C6  1  0.87812300  0.62187700  0.37812300  1
  C  C7  1  0.12187700  0.12187700  0.12187700  1
  Ni  Ni8  1  0.28410800  0.71589200  0.21589200  1
  Ni  Ni9  1  0.71589200  0.21589200  0.28410800  1
  Ni  Ni10  1  0.21589200  0.28410800  0.71589200  1
  Ni  Ni11  1  0.78410800  0.78410800  0.78410800  1
  Ni  Ni12  1  0.71589200  0.28410800  0.78410800  1
  Ni  Ni13  1  0.28410800  0.78410800  0.71589200  1
  Ni  Ni14  1  0.78410800  0.71589200  0.28410800  1
  Ni  Ni15  1  0.21589200  0.21589200  0.21589200  1
  Ni  Ni16  1  0.28379400  0.52604900  0.03031400  1
  Ni  Ni17  1  0.71620600  0.02604900  0.46968600  1
  Ni  Ni18  1  0.21620600  0.47395100  0.53031400  1
  Ni  Ni19  1  0.78379400  0.97395100  0.96968600  1
  Ni  Ni20  1  0.03031400  0.28379400  0.52604900  1
  Ni  Ni21  1  0.46968600  0.71620600  0.02604900  1
  Ni  Ni22  1  0.53031400  0.21620600  0.47395100  1
  Ni  Ni23  1  0.96968600  0.78379400  0.97395100  1
  Ni  Ni24  1  0.52604900  0.03031400  0.28379400  1
  Ni  Ni25  1  0.02604900  0.46968600  0.71620600  1
  Ni  Ni26  1  0.47395100  0.53031400  0.21620600  1
  Ni  Ni27  1  0.97395100  0.96968600  0.78379400  1
  Ni  Ni28  1  0.71620600  0.47395100  0.96968600  1
  Ni  Ni29  1  0.28379400  0.97395100  0.53031400  1
  Ni  Ni30  1  0.78379400  0.52604900  0.46968600  1
  Ni  Ni31  1  0.21620600  0.02604900  0.03031400  1
  Ni  Ni32  1  0.96968600  0.71620600  0.47395100  1
  Ni  Ni33  1  0.53031400  0.28379400  0.97395100  1
  Ni  Ni34  1  0.46968600  0.78379400  0.52604900  1
  Ni  Ni35  1  0.03031400  0.21620600  0.02604900  1
  Ni  Ni36  1  0.47395100  0.96968600  0.71620600  1
  Ni  Ni37  1  0.97395100  0.53031400  0.28379400  1
  Ni  Ni38  1  0.52604900  0.46968600  0.78379400  1
  Ni  Ni39  1  0.02604900  0.03031400  0.21620600  1
  Cu  Cu40  1  0.22368400  0.77631600  0.27631600  1
  Cu  Cu41  1  0.77631600  0.27631600  0.22368400  1
  Cu  Cu42  1  0.27631600  0.22368400  0.77631600  1
  Cu  Cu43  1  0.72368400  0.72368400  0.72368400  1
  Cu  Cu44  1  0.77631600  0.22368400  0.72368400  1
  Cu  Cu45  1  0.22368400  0.72368400  0.77631600  1
  Cu  Cu46  1  0.72368400  0.77631600  0.22368400  1
  Cu  Cu47  1  0.27631600  0.27631600  0.27631600  1
  Cu  Cu48  1  0.22356700  0.46386600  0.97144600  1
  Cu  Cu49  1  0.77643300  0.96386600  0.52855400  1
  Cu  Cu50  1  0.27643300  0.53613400  0.47144600  1
  Cu  Cu51  1  0.72356700  0.03613400  0.02855400  1
  Cu  Cu52  1  0.97144600  0.22356700  0.46386600  1
  Cu  Cu53  1  0.52855400  0.77643300  0.96386600  1
  Cu  Cu54  1  0.47144600  0.27643300  0.53613400  1
  Cu  Cu55  1  0.02855400  0.72356700  0.03613400  1
  Cu  Cu56  1  0.46386600  0.97144600  0.22356700  1
  Cu  Cu57  1  0.96386600  0.52855400  0.77643300  1
  Cu  Cu58  1  0.53613400  0.47144600  0.27643300  1
  Cu  Cu59  1  0.03613400  0.02855400  0.72356700  1
  Cu  Cu60  1  0.77643300  0.53613400  0.02855400  1
  Cu  Cu61  1  0.22356700  0.03613400  0.47144600  1
  Cu  Cu62  1  0.72356700  0.46386600  0.52855400  1
  Cu  Cu63  1  0.27643300  0.96386600  0.97144600  1
  Cu  Cu64  1  0.02855400  0.77643300  0.53613400  1
  Cu  Cu65  1  0.47144600  0.22356700  0.03613400  1
  Cu  Cu66  1  0.52855400  0.72356700  0.46386600  1
  Cu  Cu67  1  0.97144600  0.27643300  0.96386600  1
  Cu  Cu68  1  0.53613400  0.02855400  0.77643300  1
  Cu  Cu69  1  0.03613400  0.47144600  0.22356700  1
  Cu  Cu70  1  0.46386600  0.52855400  0.72356700  1
  Cu  Cu71  1  0.96386600  0.97144600  0.27643300  1
