# generated using pymatgen
data_Cu8(Ni8C5)3
_symmetry_space_group_name_H-M   'P 1'
_cell_length_a   12.84900400
_cell_length_b   13.56576500
_cell_length_c   13.71636100
_cell_angle_alpha   90.00000000
_cell_angle_beta   90.00000000
_cell_angle_gamma   90.00000000
_symmetry_Int_Tables_number   1
_chemical_formula_structural   Cu8(Ni8C5)3
_chemical_formula_sum   'Cu32 Ni96 C60'
_cell_volume   2390.85182162
_cell_formula_units_Z   4
loop_
 _symmetry_equiv_pos_site_id
 _symmetry_equiv_pos_as_xyz
  1  'x, y, z'
loop_
 _atom_site_type_symbol
 _atom_site_label
 _atom_site_symmetry_multiplicity
 _atom_site_fract_x
 _atom_site_fract_y
 _atom_site_fract_z
 _atom_site_occupancy
  C  C0  1  0.47645400  0.74833200  0.36987100  1
  C  C1  1  0.52354600  0.74833200  0.63012900  1
  C  C2  1  0.97645400  0.75166800  0.13012900  1
  C  C3  1  0.02354600  0.75166800  0.86987100  1
  C  C4  1  0.52354600  0.25166800  0.63012900  1
  C  C5  1  0.47645400  0.25166800  0.36987100  1
  C  C6  1  0.02354600  0.24833200  0.86987100  1
  C  C7  1  0.97645400  0.24833200  0.13012900  1
  C  C8  1  0.13008400  0.50000000  0.21486900  1
  C  C9  1  0.86991600  0.50000000  0.78513100  1
  C  C10  1  0.63008400  0.00000000  0.28513100  1
  C  C11  1  0.36991600  0.00000000  0.71486900  1
  C  C12  1  0.37781400  0.50000000  0.30183300  1
  C  C13  1  0.62218600  0.50000000  0.69816700  1
  C  C14  1  0.87781400  0.00000000  0.19816700  1
  C  C15  1  0.12218600  0.00000000  0.80183300  1
  C  C16  1  0.20784200  0.74386000  0.26932600  1
  C  C17  1  0.79215800  0.74386000  0.73067400  1
  C  C18  1  0.70784200  0.75614000  0.23067400  1
  C  C19  1  0.29215800  0.75614000  0.76932600  1
  C  C20  1  0.79215800  0.25614000  0.73067400  1
  C  C21  1  0.20784200  0.25614000  0.26932600  1
  C  C22  1  0.29215800  0.24386000  0.76932600  1
  C  C23  1  0.70784200  0.24386000  0.23067400  1
  Ni  Ni24  1  0.22963900  0.50000000  0.04246000  1
  Ni  Ni25  1  0.77036100  0.50000000  0.95754000  1
  Ni  Ni26  1  0.72963900  0.00000000  0.45754000  1
  Ni  Ni27  1  0.27036100  0.00000000  0.54246000  1
  Ni  Ni28  1  0.11035000  0.56665700  0.02958600  1
  Ni  Ni29  1  0.88965000  0.56665700  0.97041400  1
  Ni  Ni30  1  0.61035000  0.93334300  0.47041400  1
  Ni  Ni31  1  0.38965000  0.93334300  0.52958600  1
  Ni  Ni32  1  0.88965000  0.43334300  0.97041400  1
  Ni  Ni33  1  0.11035000  0.43334300  0.02958600  1
  Ni  Ni34  1  0.38965000  0.06665700  0.52958600  1
  Ni  Ni35  1  0.61035000  0.06665700  0.47041400  1
  Ni  Ni36  1  0.05069500  0.50000000  0.39686600  1
  Ni  Ni37  1  0.94930500  0.50000000  0.60313400  1
  Ni  Ni38  1  0.55069500  0.00000000  0.10313400  1
  Ni  Ni39  1  0.44930500  0.00000000  0.89686600  1
  Ni  Ni40  1  0.96467200  0.43352100  0.31746300  1
  Ni  Ni41  1  0.03532800  0.43352100  0.68253700  1
  Ni  Ni42  1  0.46467200  0.06647900  0.18253700  1
  Ni  Ni43  1  0.53532800  0.06647900  0.81746300  1
  Ni  Ni44  1  0.03532800  0.56647900  0.68253700  1
  Ni  Ni45  1  0.96467200  0.56647900  0.31746300  1
  Ni  Ni46  1  0.53532800  0.93352100  0.81746300  1
  Ni  Ni47  1  0.46467200  0.93352100  0.18253700  1
  Ni  Ni48  1  0.37647900  0.50000000  0.10408300  1
  Ni  Ni49  1  0.62352100  0.50000000  0.89591700  1
  Ni  Ni50  1  0.87647900  0.00000000  0.39591700  1
  Ni  Ni51  1  0.12352100  0.00000000  0.60408300  1
  Ni  Ni52  1  0.48820600  0.43421300  0.14740500  1
  Ni  Ni53  1  0.51179400  0.43421300  0.85259500  1
  Ni  Ni54  1  0.98820600  0.06578700  0.35259500  1
  Ni  Ni55  1  0.01179400  0.06578700  0.64740500  1
  Ni  Ni56  1  0.51179400  0.56578700  0.85259500  1
  Ni  Ni57  1  0.48820600  0.56578700  0.14740500  1
  Ni  Ni58  1  0.01179400  0.93421300  0.64740500  1
  Ni  Ni59  1  0.98820600  0.93421300  0.35259500  1
  Ni  Ni60  1  0.26377300  0.50000000  0.46741800  1
  Ni  Ni61  1  0.73622700  0.50000000  0.53258200  1
  Ni  Ni62  1  0.76377300  0.00000000  0.03258200  1
  Ni  Ni63  1  0.23622700  0.00000000  0.96741800  1
  Ni  Ni64  1  0.38329400  0.56585900  0.48744300  1
  Ni  Ni65  1  0.61670600  0.56585900  0.51255700  1
  Ni  Ni66  1  0.88329400  0.93414100  0.01255700  1
  Ni  Ni67  1  0.11670600  0.93414100  0.98744300  1
  Ni  Ni68  1  0.61670600  0.43414100  0.51255700  1
  Ni  Ni69  1  0.38329400  0.43414100  0.48744300  1
  Ni  Ni70  1  0.11670600  0.06585900  0.98744300  1
  Ni  Ni71  1  0.88329400  0.06585900  0.01255700  1
  Ni  Ni72  1  0.30433100  0.77162900  0.09710300  1
  Ni  Ni73  1  0.69566900  0.77162900  0.90289700  1
  Ni  Ni74  1  0.80433100  0.72837100  0.40289700  1
  Ni  Ni75  1  0.19566900  0.72837100  0.59710300  1
  Ni  Ni76  1  0.69566900  0.22837100  0.90289700  1
  Ni  Ni77  1  0.30433100  0.22837100  0.09710300  1
  Ni  Ni78  1  0.19566900  0.27162900  0.59710300  1
  Ni  Ni79  1  0.80433100  0.27162900  0.40289700  1
  Ni  Ni80  1  0.30667100  0.88504300  0.16432400  1
  Ni  Ni81  1  0.69332900  0.88504300  0.83567600  1
  Ni  Ni82  1  0.80667100  0.61495700  0.33567600  1
  Ni  Ni83  1  0.19332900  0.61495700  0.66432400  1
  Ni  Ni84  1  0.69332900  0.11495700  0.83567600  1
  Ni  Ni85  1  0.30667100  0.11495700  0.16432400  1
  Ni  Ni86  1  0.19332900  0.38504300  0.66432400  1
  Ni  Ni87  1  0.80667100  0.38504300  0.33567600  1
  Ni  Ni88  1  0.19104100  0.84862400  0.10110700  1
  Ni  Ni89  1  0.80895900  0.84862400  0.89889300  1
  Ni  Ni90  1  0.69104100  0.65137600  0.39889300  1
  Ni  Ni91  1  0.30895900  0.65137600  0.60110700  1
  Ni  Ni92  1  0.80895900  0.15137600  0.89889300  1
  Ni  Ni93  1  0.19104100  0.15137600  0.10110700  1
  Ni  Ni94  1  0.30895900  0.34862400  0.60110700  1
  Ni  Ni95  1  0.69104100  0.34862400  0.39889300  1
  Ni  Ni96  1  0.11069300  0.71383100  0.44173600  1
  Ni  Ni97  1  0.88930700  0.71383100  0.55826400  1
  Ni  Ni98  1  0.61069300  0.78616900  0.05826400  1
  Ni  Ni99  1  0.38930700  0.78616900  0.94173600  1
  Ni  Ni100  1  0.88930700  0.28616900  0.55826400  1
  Ni  Ni101  1  0.11069300  0.28616900  0.44173600  1
  Ni  Ni102  1  0.38930700  0.21383100  0.94173600  1
  Ni  Ni103  1  0.61069300  0.21383100  0.05826400  1
  Ni  Ni104  1  0.03797300  0.80204100  0.37317100  1
  Ni  Ni105  1  0.96202700  0.80204100  0.62682900  1
  Ni  Ni106  1  0.53797300  0.69795900  0.12682900  1
  Ni  Ni107  1  0.46202700  0.69795900  0.87317100  1
  Ni  Ni108  1  0.96202700  0.19795900  0.62682900  1
  Ni  Ni109  1  0.03797300  0.19795900  0.37317100  1
  Ni  Ni110  1  0.46202700  0.30204100  0.87317100  1
  Ni  Ni111  1  0.53797300  0.30204100  0.12682900  1
  Ni  Ni112  1  0.15425100  0.83937900  0.43596400  1
  Ni  Ni113  1  0.84574900  0.83937900  0.56403600  1
  Ni  Ni114  1  0.65425100  0.66062100  0.06403600  1
  Ni  Ni115  1  0.34574900  0.66062100  0.93596400  1
  Ni  Ni116  1  0.84574900  0.16062100  0.56403600  1
  Ni  Ni117  1  0.15425100  0.16062100  0.43596400  1
  Ni  Ni118  1  0.34574900  0.33937900  0.93596400  1
  Ni  Ni119  1  0.65425100  0.33937900  0.06403600  1
  Cu  Cu120  1  0.14630100  0.50000000  0.05929300  1
  Cu  Cu121  1  0.85369900  0.50000000  0.94070700  1
  Cu  Cu122  1  0.64630100  0.00000000  0.44070700  1
  Cu  Cu123  1  0.35369900  0.00000000  0.55929300  1
  Cu  Cu124  1  0.01205600  0.50000000  0.32563300  1
  Cu  Cu125  1  0.98794400  0.50000000  0.67436700  1
  Cu  Cu126  1  0.51205600  0.00000000  0.17436700  1
  Cu  Cu127  1  0.48794400  0.00000000  0.82563300  1
  Cu  Cu128  1  0.44030700  0.50000000  0.15673200  1
  Cu  Cu129  1  0.55969300  0.50000000  0.84326800  1
  Cu  Cu130  1  0.94030700  0.00000000  0.34326800  1
  Cu  Cu131  1  0.05969300  0.00000000  0.65673200  1
  Cu  Cu132  1  0.34802200  0.50000000  0.45548400  1
  Cu  Cu133  1  0.65197800  0.50000000  0.54451600  1
  Cu  Cu134  1  0.84802200  0.00000000  0.04451600  1
  Cu  Cu135  1  0.15197800  0.00000000  0.95548400  1
  Cu  Cu136  1  0.25845900  0.82242100  0.14203500  1
  Cu  Cu137  1  0.74154100  0.82242100  0.85796500  1
  Cu  Cu138  1  0.75845900  0.67757900  0.35796500  1
  Cu  Cu139  1  0.24154100  0.67757900  0.64203500  1
  Cu  Cu140  1  0.74154100  0.17757900  0.85796500  1
  Cu  Cu141  1  0.25845900  0.17757900  0.14203500  1
  Cu  Cu142  1  0.24154100  0.32242100  0.64203500  1
  Cu  Cu143  1  0.75845900  0.32242100  0.35796500  1
  Cu  Cu144  1  0.11609200  0.77971500  0.39570700  1
  Cu  Cu145  1  0.88390800  0.77971500  0.60429300  1
  Cu  Cu146  1  0.61609200  0.72028500  0.10429300  1
  Cu  Cu147  1  0.38390800  0.72028500  0.89570700  1
  Cu  Cu148  1  0.88390800  0.22028500  0.60429300  1
  Cu  Cu149  1  0.11609200  0.22028500  0.39570700  1
  Cu  Cu150  1  0.38390800  0.27971500  0.89570700  1
  Cu  Cu151  1  0.61609200  0.27971500  0.10429300  1
  C  C152  1  0.24690900  0.59789000  0.26530300  1
  C  C153  1  0.75309100  0.59789000  0.73469700  1
  C  C154  1  0.74690900  0.90211000  0.23469700  1
  C  C155  1  0.25309100  0.90211000  0.76530300  1
  C  C156  1  0.75309100  0.40211000  0.73469700  1
  C  C157  1  0.24690900  0.40211000  0.26530300  1
  C  C158  1  0.25309100  0.09789000  0.76530300  1
  C  C159  1  0.74690900  0.09789000  0.23469700  1
  C  C160  1  0.35100400  0.78417500  0.34538600  1
  C  C161  1  0.64899600  0.78417500  0.65461400  1
  C  C162  1  0.85100400  0.71582500  0.15461400  1
  C  C163  1  0.14899600  0.71582500  0.84538600  1
  C  C164  1  0.64899600  0.21582500  0.65461400  1
  C  C165  1  0.35100400  0.21582500  0.34538600  1
  C  C166  1  0.14899600  0.28417500  0.84538600  1
  C  C167  1  0.85100400  0.28417500  0.15461400  1
  C  C168  1  0.49250200  0.63082500  0.33096500  1
  C  C169  1  0.50749800  0.63082500  0.66903500  1
  C  C170  1  0.99250200  0.86917500  0.16903500  1
  C  C171  1  0.00749800  0.86917500  0.83096500  1
  C  C172  1  0.50749800  0.36917500  0.66903500  1
  C  C173  1  0.49250200  0.36917500  0.33096500  1
  C  C174  1  0.00749800  0.13082500  0.83096500  1
  C  C175  1  0.99250200  0.13082500  0.16903500  1
  C  C176  1  0.56782700  0.82171100  0.30807000  1
  C  C177  1  0.43217300  0.82171100  0.69193000  1
  C  C178  1  0.06782700  0.67828900  0.19193000  1
  C  C179  1  0.93217300  0.67828900  0.80807000  1
  C  C180  1  0.43217300  0.17828900  0.69193000  1
  C  C181  1  0.56782700  0.17828900  0.30807000  1
  C  C182  1  0.93217300  0.32171100  0.80807000  1
  C  C183  1  0.06782700  0.32171100  0.19193000  1
  C  C184  1  0.50000000  0.75658400  0.50000000  1
  C  C185  1  0.00000000  0.74341600  0.00000000  1
  C  C186  1  0.50000000  0.24341600  0.50000000  1
  C  C187  1  0.00000000  0.25658400  0.00000000  1
