# generated using pymatgen
data_Cu2(NiC3)5
_symmetry_space_group_name_H-M   'P 1'
_cell_length_a   5.17573955
_cell_length_b   5.17574029
_cell_length_c   9.75420782
_cell_angle_alpha   85.77704517
_cell_angle_beta   94.22295887
_cell_angle_gamma   62.08941745
_symmetry_Int_Tables_number   1
_chemical_formula_structural   Cu2(NiC3)5
_chemical_formula_sum   'Cu2 Ni5 C15'
_cell_volume   228.53796166
_cell_formula_units_Z   1
loop_
 _symmetry_equiv_pos_site_id
 _symmetry_equiv_pos_as_xyz
  1  'x, y, z'
loop_
 _atom_site_type_symbol
 _atom_site_label
 _atom_site_symmetry_multiplicity
 _atom_site_fract_x
 _atom_site_fract_y
 _atom_site_fract_z
 _atom_site_occupancy
  C  C0  1  0.32346500  0.86047900  0.98634000  1
  C  C1  1  0.86047900  0.32346500  0.51366000  1
  C  C2  1  0.91846400  0.91846400  0.75000000  1
  Ni  Ni3  1  0.07526100  0.07526100  0.25000000  1
  Ni  Ni4  1  0.41045600  0.41045600  0.25000000  1
  Ni  Ni5  1  0.58251000  0.58251000  0.75000000  1
  Ni  Ni6  1  0.50370100  0.99783500  0.50705400  1
  Ni  Ni7  1  0.99783500  0.50370100  0.99294600  1
  Cu  Cu8  1  0.26402600  0.26402600  0.75000000  1
  Cu  Cu9  1  0.74916100  0.74916100  0.25000000  1
  C  C10  1  0.16778000  0.31397800  0.38254800  1
  C  C11  1  0.06889700  0.74320800  0.13857100  1
  C  C12  1  0.31397800  0.16778000  0.11745200  1
  C  C13  1  0.28728200  0.55346000  0.85697400  1
  C  C14  1  0.25570700  0.96281900  0.64469600  1
  C  C15  1  0.55346000  0.28728200  0.64302600  1
  C  C16  1  0.43198100  0.73732800  0.34968000  1
  C  C17  1  0.74320800  0.06889700  0.36142900  1
  C  C18  1  0.73732800  0.43198100  0.15032000  1
  C  C19  1  0.65673200  0.80945000  0.88221700  1
  C  C20  1  0.96281900  0.25570700  0.85530400  1
  C  C21  1  0.80945000  0.65673200  0.61778300  1
