# generated using pymatgen
data_Cu(NiC)3
_symmetry_space_group_name_H-M   'P 1'
_cell_length_a   5.96929800
_cell_length_b   6.14769500
_cell_length_c   8.68551600
_cell_angle_alpha   90.00000000
_cell_angle_beta   90.00000000
_cell_angle_gamma   90.00000000
_symmetry_Int_Tables_number   1
_chemical_formula_structural   Cu(NiC)3
_chemical_formula_sum   'Cu4 Ni12 C12'
_cell_volume   318.73605869
_cell_formula_units_Z   4
loop_
 _symmetry_equiv_pos_site_id
 _symmetry_equiv_pos_as_xyz
  1  'x, y, z'
loop_
 _atom_site_type_symbol
 _atom_site_label
 _atom_site_symmetry_multiplicity
 _atom_site_fract_x
 _atom_site_fract_y
 _atom_site_fract_z
 _atom_site_occupancy
  C  C0  1  0.02170600  0.75000000  0.64282800  1
  C  C1  1  0.52170600  0.75000000  0.85717200  1
  C  C2  1  0.47829400  0.25000000  0.14282800  1
  C  C3  1  0.97829400  0.25000000  0.35717200  1
  C  C4  1  0.74337400  0.25000000  0.74049600  1
  C  C5  1  0.24337400  0.25000000  0.75950400  1
  C  C6  1  0.00000000  0.00000000  0.00000000  1
  C  C7  1  0.00000000  0.50000000  0.00000000  1
  C  C8  1  0.75662600  0.75000000  0.24049600  1
  C  C9  1  0.25662600  0.75000000  0.25950400  1
  C  C10  1  0.50000000  0.00000000  0.50000000  1
  C  C11  1  0.50000000  0.50000000  0.50000000  1
  Ni  Ni12  1  0.49163500  0.47053000  0.73112800  1
  Ni  Ni13  1  0.49163500  0.02947000  0.73112800  1
  Ni  Ni14  1  0.99163500  0.47053000  0.76887200  1
  Ni  Ni15  1  0.99163500  0.02947000  0.76887200  1
  Ni  Ni16  1  0.21642600  0.25000000  0.99694600  1
  Ni  Ni17  1  0.78357400  0.75000000  0.00305400  1
  Ni  Ni18  1  0.00836500  0.97053000  0.23112800  1
  Ni  Ni19  1  0.00836500  0.52947000  0.23112800  1
  Ni  Ni20  1  0.50836500  0.97053000  0.26887200  1
  Ni  Ni21  1  0.50836500  0.52947000  0.26887200  1
  Ni  Ni22  1  0.28357400  0.75000000  0.49694600  1
  Ni  Ni23  1  0.71642600  0.25000000  0.50305400  1
  Cu  Cu24  1  0.75336400  0.25000000  0.99732600  1
  Cu  Cu25  1  0.24663600  0.75000000  0.00267400  1
  Cu  Cu26  1  0.74663600  0.75000000  0.49732600  1
  Cu  Cu27  1  0.25336400  0.25000000  0.50267400  1
