# generated using pymatgen
data_Cu37(Ni5C9)2
_symmetry_space_group_name_H-M   'P 1'
_cell_length_a   12.54921934
_cell_length_b   12.54921934
_cell_length_c   13.29989100
_cell_angle_alpha   90.00000000
_cell_angle_beta   90.00000000
_cell_angle_gamma   120.66550768
_symmetry_Int_Tables_number   1
_chemical_formula_structural   Cu37(Ni5C9)2
_chemical_formula_sum   'Cu74 Ni20 C36'
_cell_volume   1801.60871775
_cell_formula_units_Z   2
loop_
 _symmetry_equiv_pos_site_id
 _symmetry_equiv_pos_as_xyz
  1  'x, y, z'
loop_
 _atom_site_type_symbol
 _atom_site_label
 _atom_site_symmetry_multiplicity
 _atom_site_fract_x
 _atom_site_fract_y
 _atom_site_fract_z
 _atom_site_occupancy
  C  C0  1  0.99060600  0.99060600  0.00000000  1
  C  C1  1  0.03832800  0.51432900  0.16296300  1
  C  C2  1  0.53832800  0.01432900  0.33703700  1
  C  C3  1  0.49060600  0.49060600  0.50000000  1
  C  C4  1  0.01432900  0.53832800  0.66296300  1
  C  C5  1  0.51432900  0.03832800  0.83703700  1
  C  C6  1  0.71213400  0.71213400  0.00000000  1
  C  C7  1  0.57107400  0.63440500  0.06874100  1
  C  C8  1  0.26534100  0.02836000  0.04728900  1
  C  C9  1  0.36451300  0.33764000  0.10787600  1
  C  C10  1  0.26707000  0.45202800  0.12025400  1
  C  C11  1  0.24120800  0.50536700  0.02360800  1
  C  C12  1  0.22650700  0.07691700  0.14336000  1
  C  C13  1  0.42519200  0.45094800  0.17832500  1
  C  C14  1  0.92519200  0.95094800  0.32167500  1
  C  C15  1  0.72650700  0.57691700  0.35664000  1
  C  C16  1  0.74120800  0.00536700  0.47639200  1
  C  C17  1  0.76707000  0.95202800  0.37974600  1
  C  C18  1  0.86451300  0.83764000  0.39212400  1
  C  C19  1  0.76534100  0.52836000  0.45271100  1
  C  C20  1  0.07107400  0.13440500  0.43125900  1
  C  C21  1  0.21213400  0.21213400  0.50000000  1
  C  C22  1  0.13440500  0.07107400  0.56874100  1
  C  C23  1  0.52836000  0.76534100  0.54728900  1
  C  C24  1  0.83764000  0.86451300  0.60787600  1
  C  C25  1  0.95202800  0.76707000  0.62025400  1
  C  C26  1  0.00536700  0.74120800  0.52360800  1
  C  C27  1  0.57691700  0.72650700  0.64336000  1
  C  C28  1  0.95094800  0.92519200  0.67832500  1
  C  C29  1  0.45094800  0.42519200  0.82167500  1
  C  C30  1  0.07691700  0.22650700  0.85664000  1
  C  C31  1  0.50536700  0.24120800  0.97639200  1
  C  C32  1  0.45202800  0.26707000  0.87974600  1
  C  C33  1  0.33764000  0.36451300  0.89212400  1
  C  C34  1  0.02836000  0.26534100  0.95271100  1
  C  C35  1  0.63440500  0.57107400  0.93125900  1
  Ni  Ni36  1  0.36962200  0.84580900  0.07949800  1
  Ni  Ni37  1  0.72890100  0.08291100  0.08702600  1
  Ni  Ni38  1  0.83845400  0.65987200  0.12092700  1
  Ni  Ni39  1  0.65178500  0.34009700  0.19263200  1
  Ni  Ni40  1  0.08264400  0.23359000  0.24797700  1
  Ni  Ni41  1  0.58264400  0.73359000  0.25202300  1
  Ni  Ni42  1  0.15178500  0.84009700  0.30736800  1
  Ni  Ni43  1  0.33845400  0.15987200  0.37907300  1
  Ni  Ni44  1  0.22890100  0.58291100  0.41297400  1
  Ni  Ni45  1  0.86962200  0.34580900  0.42050200  1
  Ni  Ni46  1  0.34580900  0.86962200  0.57949800  1
  Ni  Ni47  1  0.58291100  0.22890100  0.58702600  1
  Ni  Ni48  1  0.15987200  0.33845400  0.62092700  1
  Ni  Ni49  1  0.84009700  0.15178500  0.69263200  1
  Ni  Ni50  1  0.73359000  0.58264400  0.74797700  1
  Ni  Ni51  1  0.23359000  0.08264400  0.75202300  1
  Ni  Ni52  1  0.34009700  0.65178500  0.80736800  1
  Ni  Ni53  1  0.65987200  0.83845400  0.87907300  1
  Ni  Ni54  1  0.08291100  0.72890100  0.91297400  1
  Ni  Ni55  1  0.84580900  0.36962200  0.92050200  1
  Cu  Cu56  1  0.63334300  0.63334300  0.00000000  1
  Cu  Cu57  1  0.94117700  0.34569700  0.01233600  1
  Cu  Cu58  1  0.58181800  0.99397300  0.01645200  1
  Cu  Cu59  1  0.80208000  0.00269600  0.02919100  1
  Cu  Cu60  1  0.20847100  0.47686900  0.09164400  1
  Cu  Cu61  1  0.20872800  0.05600400  0.07117900  1
  Cu  Cu62  1  0.20436100  0.72438300  0.09041300  1
  Cu  Cu63  1  0.79306600  0.42846700  0.11212100  1
  Cu  Cu64  1  0.85624600  0.81540800  0.11899500  1
  Cu  Cu65  1  0.53841700  0.32775600  0.10236000  1
  Cu  Cu66  1  0.50910900  0.64377300  0.13514400  1
  Cu  Cu67  1  0.03092500  0.10761100  0.15855200  1
  Cu  Cu68  1  0.34450200  0.38458100  0.15526200  1
  Cu  Cu69  1  0.97671900  0.68358000  0.18800400  1
  Cu  Cu70  1  0.63973700  0.18683200  0.18324000  1
  Cu  Cu71  1  0.67378200  0.99066500  0.20273300  1
  Cu  Cu72  1  0.96632500  0.27590400  0.22146600  1
  Cu  Cu73  1  0.72207800  0.59478500  0.22156400  1
  Cu  Cu74  1  0.38370500  0.93491400  0.19332200  1
  Cu  Cu75  1  0.88370500  0.43491400  0.30667800  1
  Cu  Cu76  1  0.22207800  0.09478500  0.27843600  1
  Cu  Cu77  1  0.46632500  0.77590400  0.27853400  1
  Cu  Cu78  1  0.17378200  0.49066500  0.29726700  1
  Cu  Cu79  1  0.13973700  0.68683200  0.31676000  1
  Cu  Cu80  1  0.47671900  0.18358000  0.31199600  1
  Cu  Cu81  1  0.84450200  0.88458100  0.34473800  1
  Cu  Cu82  1  0.53092500  0.60761100  0.34144800  1
  Cu  Cu83  1  0.00910900  0.14377300  0.36485600  1
  Cu  Cu84  1  0.03841700  0.82775600  0.39764000  1
  Cu  Cu85  1  0.35624600  0.31540800  0.38100500  1
  Cu  Cu86  1  0.29306600  0.92846700  0.38787900  1
  Cu  Cu87  1  0.70436100  0.22438300  0.40958700  1
  Cu  Cu88  1  0.70872800  0.55600400  0.42882100  1
  Cu  Cu89  1  0.70847100  0.97686900  0.40835600  1
  Cu  Cu90  1  0.30208000  0.50269600  0.47080900  1
  Cu  Cu91  1  0.08181800  0.49397300  0.48354800  1
  Cu  Cu92  1  0.44117700  0.84569700  0.48766400  1
  Cu  Cu93  1  0.13334300  0.13334300  0.50000000  1
  Cu  Cu94  1  0.84569700  0.44117700  0.51233600  1
  Cu  Cu95  1  0.49397300  0.08181800  0.51645200  1
  Cu  Cu96  1  0.50269600  0.30208000  0.52919100  1
  Cu  Cu97  1  0.97686900  0.70847100  0.59164400  1
  Cu  Cu98  1  0.55600400  0.70872800  0.57117900  1
  Cu  Cu99  1  0.22438300  0.70436100  0.59041300  1
  Cu  Cu100  1  0.92846700  0.29306600  0.61212100  1
  Cu  Cu101  1  0.31540800  0.35624600  0.61899500  1
  Cu  Cu102  1  0.82775600  0.03841700  0.60236000  1
  Cu  Cu103  1  0.14377300  0.00910900  0.63514400  1
  Cu  Cu104  1  0.60761100  0.53092500  0.65855200  1
  Cu  Cu105  1  0.88458100  0.84450200  0.65526200  1
  Cu  Cu106  1  0.18358000  0.47671900  0.68800400  1
  Cu  Cu107  1  0.68683200  0.13973700  0.68324000  1
  Cu  Cu108  1  0.49066500  0.17378200  0.70273300  1
  Cu  Cu109  1  0.77590400  0.46632500  0.72146600  1
  Cu  Cu110  1  0.09478500  0.22207800  0.72156400  1
  Cu  Cu111  1  0.43491400  0.88370500  0.69332200  1
  Cu  Cu112  1  0.93491400  0.38370500  0.80667800  1
  Cu  Cu113  1  0.59478500  0.72207800  0.77843600  1
  Cu  Cu114  1  0.27590400  0.96632500  0.77853400  1
  Cu  Cu115  1  0.99066500  0.67378200  0.79726700  1
  Cu  Cu116  1  0.18683200  0.63973700  0.81676000  1
  Cu  Cu117  1  0.68358000  0.97671900  0.81199600  1
  Cu  Cu118  1  0.38458100  0.34450200  0.84473800  1
  Cu  Cu119  1  0.10761100  0.03092500  0.84144800  1
  Cu  Cu120  1  0.64377300  0.50910900  0.86485600  1
  Cu  Cu121  1  0.32775600  0.53841700  0.89764000  1
  Cu  Cu122  1  0.81540800  0.85624600  0.88100500  1
  Cu  Cu123  1  0.42846700  0.79306600  0.88787900  1
  Cu  Cu124  1  0.72438300  0.20436100  0.90958700  1
  Cu  Cu125  1  0.05600400  0.20872800  0.92882100  1
  Cu  Cu126  1  0.47686900  0.20847100  0.90835600  1
  Cu  Cu127  1  0.00269600  0.80208000  0.97080900  1
  Cu  Cu128  1  0.99397300  0.58181800  0.98354800  1
  Cu  Cu129  1  0.34569700  0.94117700  0.98766400  1
