# generated using pymatgen
data_Cu2NiC6
_symmetry_space_group_name_H-M   'P 1'
_cell_length_a   7.49485200
_cell_length_b   7.49485200
_cell_length_c   6.36249500
_cell_angle_alpha   90.00000000
_cell_angle_beta   90.00000000
_cell_angle_gamma   90.00000000
_symmetry_Int_Tables_number   1
_chemical_formula_structural   Cu2NiC6
_chemical_formula_sum   'Cu4 Ni2 C12'
_cell_volume   357.39920050
_cell_formula_units_Z   2
loop_
 _symmetry_equiv_pos_site_id
 _symmetry_equiv_pos_as_xyz
  1  'x, y, z'
loop_
 _atom_site_type_symbol
 _atom_site_label
 _atom_site_symmetry_multiplicity
 _atom_site_fract_x
 _atom_site_fract_y
 _atom_site_fract_z
 _atom_site_occupancy
  Ni  Ni0  1  0.50000000  0.50000000  0.00000000  1
  Ni  Ni1  1  0.00000000  0.00000000  0.00000000  1
  Cu  Cu2  1  0.82183700  0.32183700  0.50000000  1
  Cu  Cu3  1  0.32183700  0.17816300  0.50000000  1
  Cu  Cu4  1  0.17816300  0.67816300  0.50000000  1
  Cu  Cu5  1  0.67816300  0.82183700  0.50000000  1
  C  C6  1  0.50000000  0.00000000  0.00000000  1
  C  C7  1  0.00000000  0.50000000  0.00000000  1
  C  C8  1  0.36929000  0.86929000  0.77491000  1
  C  C9  1  0.63071000  0.13071000  0.77491000  1
  C  C10  1  0.13071000  0.36929000  0.77491000  1
  C  C11  1  0.86929000  0.63071000  0.77491000  1
  C  C12  1  0.36929000  0.86929000  0.22509000  1
  C  C13  1  0.86929000  0.63071000  0.22509000  1
  C  C14  1  0.13071000  0.36929000  0.22509000  1
  C  C15  1  0.63071000  0.13071000  0.22509000  1
  C  C16  1  0.00000000  0.00000000  0.50000000  1
  C  C17  1  0.50000000  0.50000000  0.50000000  1
