# generated using pymatgen
data_Cu4NiC2
_symmetry_space_group_name_H-M   'P 1'
_cell_length_a   8.76130000
_cell_length_b   8.76130000
_cell_length_c   10.74041100
_cell_angle_alpha   90.00000000
_cell_angle_beta   90.00000000
_cell_angle_gamma   90.00000000
_symmetry_Int_Tables_number   1
_chemical_formula_structural   Cu4NiC2
_chemical_formula_sum   'Cu16 Ni4 C8'
_cell_volume   824.43800491
_cell_formula_units_Z   4
loop_
 _symmetry_equiv_pos_site_id
 _symmetry_equiv_pos_as_xyz
  1  'x, y, z'
loop_
 _atom_site_type_symbol
 _atom_site_label
 _atom_site_symmetry_multiplicity
 _atom_site_fract_x
 _atom_site_fract_y
 _atom_site_fract_z
 _atom_site_occupancy
  C  C0  1  0.00000000  0.50000000  0.75000000  1
  C  C1  1  0.50000000  0.00000000  0.75000000  1
  C  C2  1  0.50000000  0.00000000  0.25000000  1
  C  C3  1  0.00000000  0.50000000  0.25000000  1
  Ni  Ni4  1  0.74893800  0.74893800  0.00000000  1
  Ni  Ni5  1  0.25106200  0.25106200  0.00000000  1
  Ni  Ni6  1  0.24893800  0.75106200  0.50000000  1
  Ni  Ni7  1  0.75106200  0.24893800  0.50000000  1
  C  C8  1  0.50000000  0.50000000  0.50000000  1
  C  C9  1  0.00000000  0.00000000  0.00000000  1
  C  C10  1  0.50000000  0.50000000  0.00000000  1
  C  C11  1  0.00000000  0.00000000  0.50000000  1
  Cu  Cu12  1  0.35746000  0.35746000  0.14641500  1
  Cu  Cu13  1  0.64254000  0.64254000  0.14641500  1
  Cu  Cu14  1  0.14254000  0.85746000  0.35358500  1
  Cu  Cu15  1  0.85746000  0.14254000  0.35358500  1
  Cu  Cu16  1  0.64254000  0.64254000  0.85358500  1
  Cu  Cu17  1  0.35746000  0.35746000  0.85358500  1
  Cu  Cu18  1  0.14254000  0.85746000  0.64641500  1
  Cu  Cu19  1  0.85746000  0.14254000  0.64641500  1
  Cu  Cu20  1  0.51695800  0.23236800  0.50000000  1
  Cu  Cu21  1  0.48304200  0.76763200  0.50000000  1
  Cu  Cu22  1  0.98304200  0.73236800  0.00000000  1
  Cu  Cu23  1  0.01695800  0.26763200  0.00000000  1
  Cu  Cu24  1  0.76763200  0.48304200  0.50000000  1
  Cu  Cu25  1  0.23236800  0.51695800  0.50000000  1
  Cu  Cu26  1  0.26763200  0.01695800  0.00000000  1
  Cu  Cu27  1  0.73236800  0.98304200  0.00000000  1
