# generated using pymatgen
data_Cu15(Ni4C3)2
_symmetry_space_group_name_H-M   'P 1'
_cell_length_a   21.62281906
_cell_length_b   9.57401606
_cell_length_c   12.67548060
_cell_angle_alpha   90.00000000
_cell_angle_beta   90.00000000
_cell_angle_gamma   90.00000000
_symmetry_Int_Tables_number   1
_chemical_formula_structural   Cu15(Ni4C3)2
_chemical_formula_sum   'Cu60 Ni32 C24'
_cell_volume   2624.04271723
_cell_formula_units_Z   4
loop_
 _symmetry_equiv_pos_site_id
 _symmetry_equiv_pos_as_xyz
  1  'x, y, z'
loop_
 _atom_site_type_symbol
 _atom_site_label
 _atom_site_symmetry_multiplicity
 _atom_site_fract_x
 _atom_site_fract_y
 _atom_site_fract_z
 _atom_site_occupancy
  C  C0  1  0.26186220  0.74842108  0.96909065  1
  C  C1  1  0.23813780  0.75157892  0.46909065  1
  C  C2  1  0.76186220  0.75157892  0.03090935  1
  C  C3  1  0.73813780  0.74842108  0.53090935  1
  C  C4  1  0.73813780  0.25157892  0.03090935  1
  C  C5  1  0.76186220  0.24842108  0.53090935  1
  C  C6  1  0.23813780  0.24842108  0.96909065  1
  C  C7  1  0.26186220  0.25157892  0.46909065  1
  C  C8  1  0.39385246  0.91939154  0.68957132  1
  C  C9  1  0.10614754  0.58060846  0.18957132  1
  C  C10  1  0.89385246  0.58060846  0.31042868  1
  C  C11  1  0.60614754  0.91939154  0.81042868  1
  C  C12  1  0.60614754  0.08060846  0.31042868  1
  C  C13  1  0.89385246  0.41939154  0.81042868  1
  C  C14  1  0.10614754  0.41939154  0.68957132  1
  C  C15  1  0.39385246  0.08060846  0.18957132  1
  C  C16  1  0.07105061  0.99442853  0.64998300  1
  C  C17  1  0.42894939  0.50557147  0.14998300  1
  C  C18  1  0.57105061  0.50557147  0.35001700  1
  C  C19  1  0.92894939  0.99442853  0.85001700  1
  C  C20  1  0.92894939  0.00557147  0.35001700  1
  C  C21  1  0.57105061  0.49442853  0.85001700  1
  C  C22  1  0.42894939  0.49442853  0.64998300  1
  C  C23  1  0.07105061  0.00557147  0.14998300  1
  Ni  Ni24  1  0.08547745  0.93582433  0.46993874  1
  Ni  Ni25  1  0.41452255  0.56417567  0.96993874  1
  Ni  Ni26  1  0.58547745  0.56417567  0.53006126  1
  Ni  Ni27  1  0.91452255  0.93582433  0.03006126  1
  Ni  Ni28  1  0.91452255  0.06417567  0.53006126  1
  Ni  Ni29  1  0.58547745  0.43582433  0.03006126  1
  Ni  Ni30  1  0.41452255  0.43582433  0.46993874  1
  Ni  Ni31  1  0.08547745  0.06417567  0.96993874  1
  Ni  Ni32  1  0.15698555  0.87963127  0.73080965  1
  Ni  Ni33  1  0.34301445  0.62036873  0.23080965  1
  Ni  Ni34  1  0.65698555  0.62036873  0.26919035  1
  Ni  Ni35  1  0.84301445  0.87963127  0.76919035  1
  Ni  Ni36  1  0.84301445  0.12036873  0.26919035  1
  Ni  Ni37  1  0.65698555  0.37963127  0.76919035  1
  Ni  Ni38  1  0.34301445  0.37963127  0.73080965  1
  Ni  Ni39  1  0.15698555  0.12036873  0.23080965  1
  Ni  Ni40  1  0.05230515  0.71570268  0.46190445  1
  Ni  Ni41  1  0.44769485  0.78429732  0.96190445  1
  Ni  Ni42  1  0.55230515  0.78429732  0.53809555  1
  Ni  Ni43  1  0.94769485  0.71570268  0.03809555  1
  Ni  Ni44  1  0.94769485  0.28429732  0.53809555  1
  Ni  Ni45  1  0.55230515  0.21570268  0.03809555  1
  Ni  Ni46  1  0.44769485  0.21570268  0.46190445  1
  Ni  Ni47  1  0.05230515  0.28429732  0.96190445  1
  Ni  Ni48  1  0.23029256  0.03560021  0.72082410  1
  Ni  Ni49  1  0.26970744  0.46439979  0.22082410  1
  Ni  Ni50  1  0.73029256  0.46439979  0.27917590  1
  Ni  Ni51  1  0.76970744  0.03560021  0.77917590  1
  Ni  Ni52  1  0.76970744  0.96439979  0.27917590  1
  Ni  Ni53  1  0.73029256  0.53560021  0.77917590  1
  Ni  Ni54  1  0.26970744  0.53560021  0.72082410  1
  Ni  Ni55  1  0.23029256  0.96439979  0.22082410  1
  Cu  Cu56  1  0.00504139  0.70069082  0.54299415  1
  Cu  Cu57  1  0.49495861  0.79930918  0.04299415  1
  Cu  Cu58  1  0.50504139  0.79930918  0.45700585  1
  Cu  Cu59  1  0.99495861  0.70069082  0.95700585  1
  Cu  Cu60  1  0.99495861  0.29930918  0.45700585  1
  Cu  Cu61  1  0.50504139  0.20069082  0.95700585  1
  Cu  Cu62  1  0.49495861  0.20069082  0.54299415  1
  Cu  Cu63  1  0.00504139  0.29930918  0.04299415  1
  Cu  Cu64  1  0.10851916  0.63337560  0.47757123  1
  Cu  Cu65  1  0.39148084  0.86662440  0.97757123  1
  Cu  Cu66  1  0.60851916  0.86662440  0.52242877  1
  Cu  Cu67  1  0.89148084  0.63337560  0.02242877  1
  Cu  Cu68  1  0.89148084  0.36662440  0.52242877  1
  Cu  Cu69  1  0.60851916  0.13337560  0.02242877  1
  Cu  Cu70  1  0.39148084  0.13337560  0.47757123  1
  Cu  Cu71  1  0.10851916  0.36662440  0.97757123  1
  Cu  Cu72  1  0.02879525  0.71543464  0.35296795  1
  Cu  Cu73  1  0.47120475  0.78456536  0.85296795  1
  Cu  Cu74  1  0.52879525  0.78456536  0.64703205  1
  Cu  Cu75  1  0.97120475  0.71543464  0.14703205  1
  Cu  Cu76  1  0.97120475  0.28456536  0.64703205  1
  Cu  Cu77  1  0.52879525  0.21543464  0.14703205  1
  Cu  Cu78  1  0.47120475  0.21543464  0.35296795  1
  Cu  Cu79  1  0.02879525  0.28456536  0.85296795  1
  Cu  Cu80  1  0.20115087  0.17319741  0.72924778  1
  Cu  Cu81  1  0.29884913  0.32680259  0.22924778  1
  Cu  Cu82  1  0.70115087  0.32680259  0.27075222  1
  Cu  Cu83  1  0.79884913  0.17319741  0.77075222  1
  Cu  Cu84  1  0.79884913  0.82680259  0.27075222  1
  Cu  Cu85  1  0.70115087  0.67319741  0.77075222  1
  Cu  Cu86  1  0.29884913  0.67319741  0.72924778  1
  Cu  Cu87  1  0.20115087  0.82680259  0.22924778  1
  Cu  Cu88  1  0.26094215  0.01135844  0.61870966  1
  Cu  Cu89  1  0.23905785  0.48864156  0.11870966  1
  Cu  Cu90  1  0.76094215  0.48864156  0.38129034  1
  Cu  Cu91  1  0.73905785  0.01135844  0.88129034  1
  Cu  Cu92  1  0.73905785  0.98864156  0.38129034  1
  Cu  Cu93  1  0.76094215  0.51135844  0.88129034  1
  Cu  Cu94  1  0.23905785  0.51135844  0.61870966  1
  Cu  Cu95  1  0.26094215  0.98864156  0.11870966  1
  Cu  Cu96  1  0.26841051  0.99731059  0.81207600  1
  Cu  Cu97  1  0.23158949  0.50268941  0.31207600  1
  Cu  Cu98  1  0.76841051  0.50268941  0.18792400  1
  Cu  Cu99  1  0.73158949  0.99731059  0.68792400  1
  Cu  Cu100  1  0.73158949  0.00268941  0.18792400  1
  Cu  Cu101  1  0.76841051  0.49731059  0.68792400  1
  Cu  Cu102  1  0.23158949  0.49731059  0.81207600  1
  Cu  Cu103  1  0.26841051  0.00268941  0.31207600  1
  Cu  Cu104  1  0.13003320  0.67213950  0.95598096  1
  Cu  Cu105  1  0.36996680  0.82786050  0.45598096  1
  Cu  Cu106  1  0.63003320  0.82786050  0.04401904  1
  Cu  Cu107  1  0.86996680  0.67213950  0.54401904  1
  Cu  Cu108  1  0.86996680  0.32786050  0.04401904  1
  Cu  Cu109  1  0.63003320  0.17213950  0.54401904  1
  Cu  Cu110  1  0.36996680  0.17213950  0.95598096  1
  Cu  Cu111  1  0.13003320  0.32786050  0.45598096  1
  Cu  Cu112  1  0.00000000  0.61350012  0.75000000  1
  Cu  Cu113  1  0.50000000  0.88649988  0.25000000  1
  Cu  Cu114  1  0.00000000  0.38649988  0.25000000  1
  Cu  Cu115  1  0.50000000  0.11350012  0.75000000  1
