# generated using pymatgen
data_Cu6NiC
_symmetry_space_group_name_H-M   'P 1'
_cell_length_a   10.94044600
_cell_length_b   9.30851000
_cell_length_c   10.06350040
_cell_angle_alpha   76.19161946
_cell_angle_beta   90.00000000
_cell_angle_gamma   90.00000000
_symmetry_Int_Tables_number   1
_chemical_formula_structural   Cu6NiC
_chemical_formula_sum   'Cu48 Ni8 C8'
_cell_volume   995.24027279
_cell_formula_units_Z   8
loop_
 _symmetry_equiv_pos_site_id
 _symmetry_equiv_pos_as_xyz
  1  'x, y, z'
loop_
 _atom_site_type_symbol
 _atom_site_label
 _atom_site_symmetry_multiplicity
 _atom_site_fract_x
 _atom_site_fract_y
 _atom_site_fract_z
 _atom_site_occupancy
  C  C0  1  0.21586500  0.46957600  0.68371000  1
  C  C1  1  0.71586500  0.03042400  0.31629000  1
  C  C2  1  0.78413500  0.53042400  0.31629000  1
  C  C3  1  0.28413500  0.96957600  0.68371000  1
  C  C4  1  0.66549000  0.41493400  0.69810300  1
  C  C5  1  0.16549000  0.08506600  0.30189700  1
  C  C6  1  0.33451000  0.58506600  0.30189700  1
  C  C7  1  0.83451000  0.91493400  0.69810300  1
  Ni  Ni8  1  0.98992700  0.20162600  0.53249600  1
  Ni  Ni9  1  0.48992700  0.29837400  0.46750400  1
  Ni  Ni10  1  0.01007300  0.79837400  0.46750400  1
  Ni  Ni11  1  0.51007300  0.70162600  0.53249600  1
  Ni  Ni12  1  0.81403800  0.13159200  0.90559300  1
  Ni  Ni13  1  0.31403800  0.36840800  0.09440700  1
  Ni  Ni14  1  0.18596200  0.86840800  0.09440700  1
  Ni  Ni15  1  0.68596200  0.63159200  0.90559300  1
  Cu  Cu16  1  0.93697500  0.19530800  0.92552600  1
  Cu  Cu17  1  0.43697500  0.30469200  0.07447400  1
  Cu  Cu18  1  0.06302500  0.80469200  0.07447400  1
  Cu  Cu19  1  0.56302500  0.69530800  0.92552600  1
  Cu  Cu20  1  0.67024900  0.48447400  0.87080800  1
  Cu  Cu21  1  0.17024900  0.01552600  0.12919200  1
  Cu  Cu22  1  0.32975100  0.51552600  0.12919200  1
  Cu  Cu23  1  0.82975100  0.98447400  0.87080800  1
  Cu  Cu24  1  0.47376700  0.22986500  0.82933200  1
  Cu  Cu25  1  0.97376700  0.27013500  0.17066800  1
  Cu  Cu26  1  0.52623300  0.77013500  0.17066800  1
  Cu  Cu27  1  0.02623300  0.72986500  0.82933200  1
  Cu  Cu28  1  0.01291800  0.32027900  0.60563200  1
  Cu  Cu29  1  0.51291800  0.17972100  0.39436800  1
  Cu  Cu30  1  0.98708200  0.67972100  0.39436800  1
  Cu  Cu31  1  0.48708200  0.82027900  0.60563200  1
  Cu  Cu32  1  0.51202200  0.55416200  0.64154500  1
  Cu  Cu33  1  0.01202200  0.94583800  0.35845500  1
  Cu  Cu34  1  0.48797800  0.44583800  0.35845500  1
  Cu  Cu35  1  0.98797800  0.05416200  0.64154500  1
  Cu  Cu36  1  0.01970400  0.59401700  0.85218200  1
  Cu  Cu37  1  0.51970400  0.90598300  0.14781800  1
  Cu  Cu38  1  0.98029600  0.40598300  0.14781800  1
  Cu  Cu39  1  0.48029600  0.09401700  0.85218200  1
  Cu  Cu40  1  0.59453900  0.30607300  0.56034800  1
  Cu  Cu41  1  0.09453900  0.19392700  0.43965200  1
  Cu  Cu42  1  0.40546100  0.69392700  0.43965200  1
  Cu  Cu43  1  0.90546100  0.80607300  0.56034800  1
  Cu  Cu44  1  0.87307400  0.22343000  0.45897000  1
  Cu  Cu45  1  0.37307400  0.27657000  0.54103000  1
  Cu  Cu46  1  0.12692600  0.77657000  0.54103000  1
  Cu  Cu47  1  0.62692600  0.72343000  0.45897000  1
  Cu  Cu48  1  0.08062900  0.16503700  0.79467200  1
  Cu  Cu49  1  0.58062900  0.33496300  0.20532800  1
  Cu  Cu50  1  0.91937100  0.83496300  0.20532800  1
  Cu  Cu51  1  0.41937100  0.66503700  0.79467200  1
  Cu  Cu52  1  0.77916700  0.52178300  0.58565400  1
  Cu  Cu53  1  0.27916700  0.97821700  0.41434600  1
  Cu  Cu54  1  0.22083300  0.47821700  0.41434600  1
  Cu  Cu55  1  0.72083300  0.02178300  0.58565400  1
  Cu  Cu56  1  0.74501800  0.11525400  0.03223100  1
  Cu  Cu57  1  0.24501800  0.38474600  0.96776900  1
  Cu  Cu58  1  0.25498200  0.88474600  0.96776900  1
  Cu  Cu59  1  0.75498200  0.61525400  0.03223100  1
  Cu  Cu60  1  0.74930600  0.22958100  0.78567400  1
  Cu  Cu61  1  0.24930600  0.27041900  0.21432600  1
  Cu  Cu62  1  0.25069400  0.77041900  0.21432600  1
  Cu  Cu63  1  0.75069400  0.72958100  0.78567400  1
