# generated using pymatgen
data_Cu11Ni9C10
_symmetry_space_group_name_H-M   'P 1'
_cell_length_a   4.81994615
_cell_length_b   4.81994615
_cell_length_c   15.35721011
_cell_angle_alpha   89.77889235
_cell_angle_beta   89.77889235
_cell_angle_gamma   94.69940696
_symmetry_Int_Tables_number   1
_chemical_formula_structural   Cu11Ni9C10
_chemical_formula_sum   'Cu11 Ni9 C10'
_cell_volume   355.57170879
_cell_formula_units_Z   1
loop_
 _symmetry_equiv_pos_site_id
 _symmetry_equiv_pos_as_xyz
  1  'x, y, z'
loop_
 _atom_site_type_symbol
 _atom_site_label
 _atom_site_symmetry_multiplicity
 _atom_site_fract_x
 _atom_site_fract_y
 _atom_site_fract_z
 _atom_site_occupancy
  C  C0  1  0.00612000  0.00641800  0.80316500  1
  C  C1  1  0.00055300  0.99944700  0.00000000  1
  C  C2  1  0.99358200  0.99388000  0.19683500  1
  C  C3  1  0.04229500  0.02057000  0.40404500  1
  C  C4  1  0.97943000  0.95770500  0.59595500  1
  C  C5  1  0.50126000  0.50149200  0.90459100  1
  C  C6  1  0.49436200  0.48311200  0.29028200  1
  C  C7  1  0.49850800  0.49874000  0.09540900  1
  C  C8  1  0.46119500  0.53880500  0.50000000  1
  C  C9  1  0.51688800  0.50563800  0.70971800  1
  Ni  Ni10  1  0.18738600  0.81261400  0.50000000  1
  Ni  Ni11  1  0.70962500  0.70624500  0.79962800  1
  Ni  Ni12  1  0.69607900  0.69603500  0.00028200  1
  Ni  Ni13  1  0.69973800  0.69703600  0.20324300  1
  Ni  Ni14  1  0.67734400  0.67774600  0.59979800  1
  Ni  Ni15  1  0.30296400  0.30026200  0.79675700  1
  Ni  Ni16  1  0.30396500  0.30392100  0.99971800  1
  Ni  Ni17  1  0.29375500  0.29037500  0.20037200  1
  Ni  Ni18  1  0.32225400  0.32265600  0.40020200  1
  Cu  Cu19  1  0.20643200  0.79986800  0.89239400  1
  Cu  Cu20  1  0.20013200  0.79356800  0.10760600  1
  Cu  Cu21  1  0.19457800  0.80946500  0.30444600  1
  Cu  Cu22  1  0.19053500  0.80542200  0.69555400  1
  Cu  Cu23  1  0.70604900  0.71716200  0.40111400  1
  Cu  Cu24  1  0.28283800  0.29395100  0.59888600  1
  Cu  Cu25  1  0.80004500  0.20566000  0.89240300  1
  Cu  Cu26  1  0.81582900  0.18985900  0.30640800  1
  Cu  Cu27  1  0.79434000  0.19995500  0.10759700  1
  Cu  Cu28  1  0.81014100  0.18417100  0.69359200  1
  Cu  Cu29  1  0.81177700  0.18822300  0.50000000  1
