# generated using pymatgen
data_Cu7(Ni2C)2
_symmetry_space_group_name_H-M   'P 1'
_cell_length_a   13.25189436
_cell_length_b   13.25189436
_cell_length_c   12.16256900
_cell_angle_alpha   90.00000000
_cell_angle_beta   90.00000000
_cell_angle_gamma   129.39458886
_symmetry_Int_Tables_number   1
_chemical_formula_structural   Cu7(Ni2C)2
_chemical_formula_sum   'Cu28 Ni16 C8'
_cell_volume   1650.61093011
_cell_formula_units_Z   4
loop_
 _symmetry_equiv_pos_site_id
 _symmetry_equiv_pos_as_xyz
  1  'x, y, z'
loop_
 _atom_site_type_symbol
 _atom_site_label
 _atom_site_symmetry_multiplicity
 _atom_site_fract_x
 _atom_site_fract_y
 _atom_site_fract_z
 _atom_site_occupancy
  C  C0  1  0.56491800  0.40575400  0.65776000  1
  C  C1  1  0.09424600  0.93508200  0.15776000  1
  C  C2  1  0.90575400  0.06491800  0.15776000  1
  C  C3  1  0.43508200  0.59424600  0.65776000  1
  C  C4  1  0.93508200  0.09424600  0.84224000  1
  C  C5  1  0.40575400  0.56491800  0.34224000  1
  C  C6  1  0.59424600  0.43508200  0.34224000  1
  C  C7  1  0.06491800  0.90575400  0.84224000  1
  Ni  Ni8  1  0.72207600  0.36858100  0.65280000  1
  Ni  Ni9  1  0.13141900  0.77792400  0.15280000  1
  Ni  Ni10  1  0.86858100  0.22207600  0.15280000  1
  Ni  Ni11  1  0.27792400  0.63141900  0.65280000  1
  Ni  Ni12  1  0.77792400  0.13141900  0.84720000  1
  Ni  Ni13  1  0.36858100  0.72207600  0.34720000  1
  Ni  Ni14  1  0.63141900  0.27792400  0.34720000  1
  Ni  Ni15  1  0.22207600  0.86858100  0.84720000  1
  Ni  Ni16  1  0.61666800  0.45540600  0.84701100  1
  Ni  Ni17  1  0.04459400  0.88333200  0.34701100  1
  Ni  Ni18  1  0.95540600  0.11666800  0.34701100  1
  Ni  Ni19  1  0.38333200  0.54459400  0.84701100  1
  Ni  Ni20  1  0.88333200  0.04459400  0.65298900  1
  Ni  Ni21  1  0.45540600  0.61666800  0.15298900  1
  Ni  Ni22  1  0.54459400  0.38333200  0.15298900  1
  Ni  Ni23  1  0.11666800  0.95540600  0.65298900  1
  Cu  Cu24  1  0.42770700  0.24294200  0.67006700  1
  Cu  Cu25  1  0.25705800  0.07229300  0.17006700  1
  Cu  Cu26  1  0.74294200  0.92770700  0.17006700  1
  Cu  Cu27  1  0.57229300  0.75705800  0.67006700  1
  Cu  Cu28  1  0.07229300  0.25705800  0.82993300  1
  Cu  Cu29  1  0.24294200  0.42770700  0.32993300  1
  Cu  Cu30  1  0.75705800  0.57229300  0.32993300  1
  Cu  Cu31  1  0.92770700  0.74294200  0.82993300  1
  Cu  Cu32  1  0.76837800  0.57558600  0.66092800  1
  Cu  Cu33  1  0.92441400  0.73162200  0.16092800  1
  Cu  Cu34  1  0.07558600  0.26837800  0.16092800  1
  Cu  Cu35  1  0.23162200  0.42441400  0.66092800  1
  Cu  Cu36  1  0.73162200  0.92441400  0.83907200  1
  Cu  Cu37  1  0.57558600  0.76837800  0.33907200  1
  Cu  Cu38  1  0.42441400  0.23162200  0.33907200  1
  Cu  Cu39  1  0.26837800  0.07558600  0.83907200  1
  Cu  Cu40  1  0.50000000  0.50000000  0.66023500  1
  Cu  Cu41  1  0.00000000  0.00000000  0.16023500  1
  Cu  Cu42  1  0.00000000  0.00000000  0.83976500  1
  Cu  Cu43  1  0.50000000  0.50000000  0.33976500  1
  Cu  Cu44  1  0.57847900  0.42152100  0.50000000  1
  Cu  Cu45  1  0.07847900  0.92152100  0.00000000  1
  Cu  Cu46  1  0.92152100  0.07847900  0.00000000  1
  Cu  Cu47  1  0.42152100  0.57847900  0.50000000  1
  Cu  Cu48  1  0.21517700  0.21517700  0.50000000  1
  Cu  Cu49  1  0.28482300  0.28482300  0.00000000  1
  Cu  Cu50  1  0.71517700  0.71517700  0.00000000  1
  Cu  Cu51  1  0.78482300  0.78482300  0.50000000  1
