# generated using pymatgen
data_CuNiC10
_symmetry_space_group_name_H-M   'P 1'
_cell_length_a   8.52975762
_cell_length_b   8.52975762
_cell_length_c   8.52975698
_cell_angle_alpha   60.81538560
_cell_angle_beta   60.81538560
_cell_angle_gamma   60.81538398
_symmetry_Int_Tables_number   1
_chemical_formula_structural   CuNiC10
_chemical_formula_sum   'Cu3 Ni3 C30'
_cell_volume   446.89845343
_cell_formula_units_Z   3
loop_
 _symmetry_equiv_pos_site_id
 _symmetry_equiv_pos_as_xyz
  1  'x, y, z'
loop_
 _atom_site_type_symbol
 _atom_site_label
 _atom_site_symmetry_multiplicity
 _atom_site_fract_x
 _atom_site_fract_y
 _atom_site_fract_z
 _atom_site_occupancy
  Ni  Ni0  1  0.35582100  0.35582100  0.35582100  1
  Ni  Ni1  1  0.14188500  0.14188500  0.14188500  1
  Ni  Ni2  1  0.64415800  0.64415800  0.64415800  1
  Cu  Cu3  1  0.99769800  0.99769800  0.99769800  1
  Cu  Cu4  1  0.85786000  0.85786000  0.85786000  1
  Cu  Cu5  1  0.49838300  0.49838300  0.49838300  1
  C  C6  1  0.75147400  0.04383800  0.45951500  1
  C  C7  1  0.04383800  0.45951500  0.75147400  1
  C  C8  1  0.45951500  0.75147400  0.04383800  1
  C  C9  1  0.54558900  0.24778300  0.95561100  1
  C  C10  1  0.95561100  0.54558900  0.24778300  1
  C  C11  1  0.24778300  0.95561100  0.54558900  1
  C  C12  1  0.88069000  0.50519800  0.68488100  1
  C  C13  1  0.50519800  0.68488100  0.88069000  1
  C  C14  1  0.68488100  0.88069000  0.50519800  1
  C  C15  1  0.91237100  0.05465500  0.26171400  1
  C  C16  1  0.81258300  0.00995900  0.61452000  1
  C  C17  1  0.58813900  0.23908600  0.43551200  1
  C  C18  1  0.05465500  0.26171400  0.91237100  1
  C  C19  1  0.23908600  0.43551200  0.58813900  1
  C  C20  1  0.38168800  0.18240400  0.00405000  1
  C  C21  1  0.43551200  0.58813900  0.23908600  1
  C  C22  1  0.73890700  0.08995600  0.94679600  1
  C  C23  1  0.00405000  0.38168800  0.18240400  1
  C  C24  1  0.00995900  0.61452000  0.81258300  1
  C  C25  1  0.26171400  0.91237100  0.05465500  1
  C  C26  1  0.55676000  0.41065500  0.76100500  1
  C  C27  1  0.61452000  0.81258300  0.00995900  1
  C  C28  1  0.76100500  0.55676000  0.41065500  1
  C  C29  1  0.94679600  0.73890700  0.08995600  1
  C  C30  1  0.41065500  0.76100500  0.55676000  1
  C  C31  1  0.18240400  0.00405000  0.38168800  1
  C  C32  1  0.08995600  0.94679600  0.73890700  1
  C  C33  1  0.31880000  0.11658100  0.49346400  1
  C  C34  1  0.49346400  0.31880000  0.11658100  1
  C  C35  1  0.11658100  0.49346400  0.31880000  1
