# generated using pymatgen
data_Cu2NiC11
_symmetry_space_group_name_H-M   'P 1'
_cell_length_a   5.37288037
_cell_length_b   5.37288037
_cell_length_c   7.04243400
_cell_angle_alpha   90.00000000
_cell_angle_beta   90.00000000
_cell_angle_gamma   120.00000457
_symmetry_Int_Tables_number   1
_chemical_formula_structural   Cu2NiC11
_chemical_formula_sum   'Cu2 Ni1 C11'
_cell_volume   176.06285468
_cell_formula_units_Z   1
loop_
 _symmetry_equiv_pos_site_id
 _symmetry_equiv_pos_as_xyz
  1  'x, y, z'
loop_
 _atom_site_type_symbol
 _atom_site_label
 _atom_site_symmetry_multiplicity
 _atom_site_fract_x
 _atom_site_fract_y
 _atom_site_fract_z
 _atom_site_occupancy
  Ni  Ni0  1  0.00000000  0.00000000  0.50000000  1
  Cu  Cu1  1  0.66666700  0.33333300  0.17856200  1
  Cu  Cu2  1  0.33333300  0.66666700  0.82143800  1
  C  C3  1  0.00000000  0.00000000  0.00000000  1
  C  C4  1  0.33333300  0.66666700  0.25739900  1
  C  C5  1  0.66666700  0.33333300  0.74260100  1
  C  C6  1  0.64218500  0.77100900  0.17883700  1
  C  C7  1  0.22899100  0.87117500  0.17883700  1
  C  C8  1  0.12882500  0.35781500  0.17883700  1
  C  C9  1  0.33333300  0.66666700  0.47556600  1
  C  C10  1  0.66666700  0.33333300  0.52443400  1
  C  C11  1  0.87117500  0.64218500  0.82116300  1
  C  C12  1  0.77100900  0.12882500  0.82116300  1
  C  C13  1  0.35781500  0.22899100  0.82116300  1
