# generated using pymatgen
data_Cu7NiC3
_symmetry_space_group_name_H-M   'P 1'
_cell_length_a   6.55335100
_cell_length_b   5.18278900
_cell_length_c   9.05199673
_cell_angle_alpha   87.85702231
_cell_angle_beta   90.00000000
_cell_angle_gamma   90.00000000
_symmetry_Int_Tables_number   1
_chemical_formula_structural   Cu7NiC3
_chemical_formula_sum   'Cu14 Ni2 C6'
_cell_volume   307.23274833
_cell_formula_units_Z   2
loop_
 _symmetry_equiv_pos_site_id
 _symmetry_equiv_pos_as_xyz
  1  'x, y, z'
loop_
 _atom_site_type_symbol
 _atom_site_label
 _atom_site_symmetry_multiplicity
 _atom_site_fract_x
 _atom_site_fract_y
 _atom_site_fract_z
 _atom_site_occupancy
  C  C0  1  0.52408900  0.76123400  0.76082300  1
  C  C1  1  0.02408900  0.23876600  0.23917700  1
  C  C2  1  0.23670200  0.21706900  0.64858300  1
  C  C3  1  0.73670200  0.78293100  0.35141700  1
  Ni  Ni4  1  0.25557400  0.27648700  0.91750100  1
  Ni  Ni5  1  0.75557400  0.72351300  0.08249900  1
  C  C6  1  0.74585800  0.27701400  0.57430100  1
  C  C7  1  0.24585800  0.72298600  0.42569900  1
  Cu  Cu8  1  0.75612600  0.69245900  0.94558200  1
  Cu  Cu9  1  0.25344300  0.05092800  0.86026000  1
  Cu  Cu10  1  0.25571200  0.46712700  0.82021600  1
  Cu  Cu11  1  0.92567700  0.21569500  0.66658600  1
  Cu  Cu12  1  0.56242500  0.19708200  0.66155300  1
  Cu  Cu13  1  0.25450800  0.85559400  0.56906400  1
  Cu  Cu14  1  0.73203700  0.56306700  0.54095300  1
  Cu  Cu15  1  0.23203700  0.43693300  0.45904700  1
  Cu  Cu16  1  0.75450800  0.14440600  0.43093600  1
  Cu  Cu17  1  0.06242500  0.80291800  0.33844700  1
  Cu  Cu18  1  0.42567700  0.78430500  0.33341400  1
  Cu  Cu19  1  0.75571200  0.53287300  0.17978400  1
  Cu  Cu20  1  0.75344300  0.94907200  0.13974000  1
  Cu  Cu21  1  0.25612600  0.30754100  0.05441800  1
