# generated using pymatgen
data_Cu5NiC21
_symmetry_space_group_name_H-M   'P 1'
_cell_length_a   9.51780300
_cell_length_b   8.64278500
_cell_length_c   12.90749789
_cell_angle_alpha   75.11754601
_cell_angle_beta   90.00000000
_cell_angle_gamma   90.00000000
_symmetry_Int_Tables_number   1
_chemical_formula_structural   Cu5NiC21
_chemical_formula_sum   'Cu20 Ni4 C84'
_cell_volume   1026.15749361
_cell_formula_units_Z   4
loop_
 _symmetry_equiv_pos_site_id
 _symmetry_equiv_pos_as_xyz
  1  'x, y, z'
loop_
 _atom_site_type_symbol
 _atom_site_label
 _atom_site_symmetry_multiplicity
 _atom_site_fract_x
 _atom_site_fract_y
 _atom_site_fract_z
 _atom_site_occupancy
  C  C0  1  0.68433000  0.34961900  0.11885700  1
  C  C1  1  0.81567000  0.84961900  0.11885700  1
  C  C2  1  0.17773400  0.47453300  0.41244600  1
  C  C3  1  0.32226600  0.97453300  0.41244600  1
  C  C4  1  0.67773400  0.02546700  0.58755400  1
  C  C5  1  0.82226600  0.52546700  0.58755400  1
  C  C6  1  0.18433000  0.15038100  0.88114300  1
  C  C7  1  0.31567000  0.65038100  0.88114300  1
  Ni  Ni8  1  0.05586900  0.48867200  0.14125900  1
  Ni  Ni9  1  0.44413100  0.98867200  0.14125900  1
  Ni  Ni10  1  0.55586900  0.01132800  0.85874100  1
  Ni  Ni11  1  0.94413100  0.51132800  0.85874100  1
  Cu  Cu12  1  0.97295000  0.24220200  0.03751500  1
  Cu  Cu13  1  0.14835000  0.02874000  0.15780600  1
  Cu  Cu14  1  0.52705000  0.74220200  0.03751500  1
  Cu  Cu15  1  0.35165000  0.52874000  0.15780600  1
  Cu  Cu16  1  0.76472600  0.21159300  0.34284600  1
  Cu  Cu17  1  0.88397000  0.47233100  0.32287300  1
  Cu  Cu18  1  0.73527400  0.71159300  0.34284600  1
  Cu  Cu19  1  0.61603000  0.97233100  0.32287300  1
  Cu  Cu20  1  0.91984100  0.24891600  0.49373900  1
  Cu  Cu21  1  0.41984100  0.25108400  0.50626100  1
  Cu  Cu22  1  0.58015900  0.74891600  0.49373900  1
  Cu  Cu23  1  0.08015900  0.75108400  0.50626100  1
  Cu  Cu24  1  0.38397000  0.02766900  0.67712700  1
  Cu  Cu25  1  0.26472600  0.28840700  0.65715400  1
  Cu  Cu26  1  0.11603000  0.52766900  0.67712700  1
  Cu  Cu27  1  0.23527400  0.78840700  0.65715400  1
  Cu  Cu28  1  0.64835000  0.47126000  0.84219400  1
  Cu  Cu29  1  0.47295000  0.25779800  0.96248500  1
  Cu  Cu30  1  0.85165000  0.97126000  0.84219400  1
  Cu  Cu31  1  0.02705000  0.75779800  0.96248500  1
  C  C32  1  0.29046800  0.34886600  0.01329000  1
  C  C33  1  0.20953200  0.84886600  0.01329000  1
  C  C34  1  0.42824600  0.30468400  0.17315700  1
  C  C35  1  0.19508700  0.21573600  0.22008700  1
  C  C36  1  0.07175400  0.80468400  0.17315700  1
  C  C37  1  0.30491300  0.71573600  0.22008700  1
  C  C38  1  0.41356300  0.32062600  0.33482100  1
  C  C39  1  0.08643700  0.82062600  0.33482100  1
  C  C40  1  0.59053600  0.40351300  0.46474100  1
  C  C41  1  0.09053600  0.09648700  0.53525900  1
  C  C42  1  0.90946400  0.90351300  0.46474100  1
  C  C43  1  0.40946400  0.59648700  0.53525900  1
  C  C44  1  0.91356300  0.17937400  0.66517900  1
  C  C45  1  0.58643700  0.67937400  0.66517900  1
  C  C46  1  0.69508700  0.28426400  0.77991300  1
  C  C47  1  0.92824600  0.19531600  0.82684300  1
  C  C48  1  0.80491300  0.78426400  0.77991300  1
  C  C49  1  0.57175400  0.69531600  0.82684300  1
  C  C50  1  0.79046800  0.15113400  0.98671000  1
  C  C51  1  0.70953200  0.65113400  0.98671000  1
  C  C52  1  0.83671000  0.14684100  0.05580800  1
  C  C53  1  0.09817400  0.14403700  0.06126400  1
  C  C54  1  0.48437100  0.17623300  0.08035500  1
  C  C55  1  0.95377900  0.36503600  0.09849300  1
  C  C56  1  0.66329000  0.64684100  0.05580800  1
  C  C57  1  0.40182600  0.64403700  0.06126400  1
  C  C58  1  0.01562900  0.67623300  0.08035500  1
  C  C59  1  0.22158300  0.44743200  0.12538500  1
  C  C60  1  0.54622100  0.86503600  0.09849300  1
  C  C61  1  0.18324700  0.09998400  0.24698500  1
  C  C62  1  0.45492300  0.39727100  0.19990100  1
  C  C63  1  0.27841700  0.94743200  0.12538500  1
  C  C64  1  0.67205200  0.13510500  0.29149300  1
  C  C65  1  0.02337300  0.47195200  0.26857000  1
  C  C66  1  0.78526200  0.36786400  0.28654300  1
  C  C67  1  0.31675300  0.59998400  0.24698500  1
  C  C68  1  0.04507700  0.89727100  0.19990100  1
  C  C69  1  0.82794800  0.63510500  0.29149300  1
  C  C70  1  0.47662700  0.97195200  0.26857000  1
  C  C71  1  0.71473800  0.86786400  0.28654300  1
  C  C72  1  0.35440200  0.27175400  0.39868000  1
  C  C73  1  0.83337400  0.14442400  0.43807700  1
  C  C74  1  0.90822100  0.41953600  0.43833200  1
  C  C75  1  0.14559800  0.77175400  0.39868000  1
  C  C76  1  0.06837400  0.20708600  0.49778400  1
  C  C77  1  0.66662600  0.64442400  0.43807700  1
  C  C78  1  0.56837400  0.29291400  0.50221600  1
  C  C79  1  0.40822100  0.08046400  0.56166800  1
  C  C80  1  0.59177900  0.91953600  0.43833200  1
  C  C81  1  0.43162600  0.70708600  0.49778400  1
  C  C82  1  0.33337400  0.35557600  0.56192300  1
  C  C83  1  0.93162600  0.79291400  0.50221600  1
  C  C84  1  0.85440200  0.22824600  0.60132000  1
  C  C85  1  0.09177900  0.58046400  0.56166800  1
  C  C86  1  0.16662600  0.85557600  0.56192300  1
  C  C87  1  0.64559800  0.72824600  0.60132000  1
  C  C88  1  0.28526200  0.13213600  0.71345700  1
  C  C89  1  0.52337300  0.02804800  0.73143000  1
  C  C90  1  0.17205200  0.36489500  0.70850700  1
  C  C91  1  0.95492300  0.10272900  0.80009900  1
  C  C92  1  0.68324700  0.40001600  0.75301500  1
  C  C93  1  0.21473800  0.63213600  0.71345700  1
  C  C94  1  0.97662700  0.52804800  0.73143000  1
  C  C95  1  0.32794800  0.86489500  0.70850700  1
  C  C96  1  0.72158300  0.05256800  0.87461500  1
  C  C97  1  0.54507700  0.60272900  0.80009900  1
  C  C98  1  0.81675300  0.90001600  0.75301500  1
  C  C99  1  0.45377900  0.13496400  0.90150700  1
  C  C100  1  0.77841700  0.55256800  0.87461500  1
  C  C101  1  0.98437100  0.32376700  0.91964500  1
  C  C102  1  0.59817400  0.35596300  0.93873600  1
  C  C103  1  0.33671000  0.35315900  0.94419200  1
  C  C104  1  0.04622100  0.63496400  0.90150700  1
  C  C105  1  0.51562900  0.82376700  0.91964500  1
  C  C106  1  0.90182600  0.85596300  0.93873600  1
  C  C107  1  0.16329000  0.85315900  0.94419200  1
