# generated using pymatgen
data_CuNiC8
_symmetry_space_group_name_H-M   'P 1'
_cell_length_a   6.94901379
_cell_length_b   6.94901379
_cell_length_c   5.66480864
_cell_angle_alpha   76.91081461
_cell_angle_beta   76.91081461
_cell_angle_gamma   83.47498423
_symmetry_Int_Tables_number   1
_chemical_formula_structural   CuNiC8
_chemical_formula_sum   'Cu2 Ni2 C16'
_cell_volume   258.95618469
_cell_formula_units_Z   2
loop_
 _symmetry_equiv_pos_site_id
 _symmetry_equiv_pos_as_xyz
  1  'x, y, z'
loop_
 _atom_site_type_symbol
 _atom_site_label
 _atom_site_symmetry_multiplicity
 _atom_site_fract_x
 _atom_site_fract_y
 _atom_site_fract_z
 _atom_site_occupancy
  Ni  Ni0  1  0.30195200  0.69804800  0.25000000  1
  Ni  Ni1  1  0.69804800  0.30195200  0.75000000  1
  Cu  Cu2  1  0.89959700  0.10040300  0.25000000  1
  Cu  Cu3  1  0.10040300  0.89959700  0.75000000  1
  C  C4  1  0.37936300  0.19695300  0.26205700  1
  C  C5  1  0.80304700  0.62063700  0.23794300  1
  C  C6  1  0.62063700  0.80304700  0.73794300  1
  C  C7  1  0.19695300  0.37936300  0.76205700  1
  C  C8  1  0.35442100  0.36460300  0.97620800  1
  C  C9  1  0.63539700  0.64557900  0.52379200  1
  C  C10  1  0.64557900  0.63539700  0.02379200  1
  C  C11  1  0.36460300  0.35442100  0.47620800  1
  C  C12  1  0.09760800  0.62177900  0.69496800  1
  C  C13  1  0.37822100  0.90239200  0.80503200  1
  C  C14  1  0.90239200  0.37822100  0.30503200  1
  C  C15  1  0.62177900  0.09760800  0.19496800  1
  C  C16  1  0.19021500  0.02901500  0.36355100  1
  C  C17  1  0.97098500  0.80978500  0.13644900  1
  C  C18  1  0.80978500  0.97098500  0.63644900  1
  C  C19  1  0.02901500  0.19021500  0.86355100  1
