# generated using pymatgen
data_Cu(Ni2C9)2
_symmetry_space_group_name_H-M   'P 1'
_cell_length_a   7.51843592
_cell_length_b   7.51843592
_cell_length_c   7.51843592
_cell_angle_alpha   109.47122063
_cell_angle_beta   109.47122063
_cell_angle_gamma   109.47122063
_symmetry_Int_Tables_number   1
_chemical_formula_structural   Cu(Ni2C9)2
_chemical_formula_sum   'Cu1 Ni4 C18'
_cell_volume   327.16031393
_cell_formula_units_Z   1
loop_
 _symmetry_equiv_pos_site_id
 _symmetry_equiv_pos_as_xyz
  1  'x, y, z'
loop_
 _atom_site_type_symbol
 _atom_site_label
 _atom_site_symmetry_multiplicity
 _atom_site_fract_x
 _atom_site_fract_y
 _atom_site_fract_z
 _atom_site_occupancy
  C  C0  1  0.00000000  0.27926500  0.27926500  1
  C  C1  1  0.00000000  0.72073500  0.72073500  1
  C  C2  1  0.27926500  0.00000000  0.27926500  1
  C  C3  1  0.27926500  0.27926500  0.00000000  1
  C  C4  1  0.72073500  0.00000000  0.72073500  1
  C  C5  1  0.72073500  0.72073500  0.00000000  1
  C  C6  1  0.70211200  0.35105600  0.35105600  1
  C  C7  1  0.00000000  0.35105600  0.64894400  1
  C  C8  1  0.29788800  0.64894400  0.64894400  1
  C  C9  1  0.00000000  0.64894400  0.35105600  1
  C  C10  1  0.35105600  0.70211200  0.35105600  1
  C  C11  1  0.35105600  0.35105600  0.70211200  1
  C  C12  1  0.35105600  0.00000000  0.64894400  1
  C  C13  1  0.35105600  0.64894400  0.00000000  1
  C  C14  1  0.64894400  0.00000000  0.35105600  1
  C  C15  1  0.64894400  0.64894400  0.29788800  1
  C  C16  1  0.64894400  0.29788800  0.64894400  1
  C  C17  1  0.64894400  0.35105600  0.00000000  1
  Ni  Ni18  1  0.50000000  0.50000000  0.50000000  1
  Ni  Ni19  1  0.00000000  0.00000000  0.50000000  1
  Ni  Ni20  1  0.50000000  0.00000000  0.00000000  1
  Ni  Ni21  1  0.00000000  0.50000000  0.00000000  1
  Cu  Cu22  1  0.00000000  0.00000000  0.00000000  1
