# generated using pymatgen
data_Cu(NiC10)3
_symmetry_space_group_name_H-M   'P 1'
_cell_length_a   8.98225683
_cell_length_b   8.98225683
_cell_length_c   8.98225713
_cell_angle_alpha   58.55029566
_cell_angle_beta   58.55029566
_cell_angle_gamma   58.55029847
_symmetry_Int_Tables_number   1
_chemical_formula_structural   Cu(NiC10)3
_chemical_formula_sum   'Cu1 Ni3 C30'
_cell_volume   495.44882512
_cell_formula_units_Z   1
loop_
 _symmetry_equiv_pos_site_id
 _symmetry_equiv_pos_as_xyz
  1  'x, y, z'
loop_
 _atom_site_type_symbol
 _atom_site_label
 _atom_site_symmetry_multiplicity
 _atom_site_fract_x
 _atom_site_fract_y
 _atom_site_fract_z
 _atom_site_occupancy
  Ni  Ni0  1  0.85936400  0.85936400  0.85936400  1
  Ni  Ni1  1  0.64144500  0.64144500  0.64144500  1
  Ni  Ni2  1  0.36014400  0.36014400  0.36014400  1
  Cu  Cu3  1  0.14190700  0.14190700  0.14190700  1
  C  C4  1  0.52918300  0.96739400  0.24936800  1
  C  C5  1  0.24936800  0.52918300  0.96739400  1
  C  C6  1  0.96739400  0.24936800  0.52918300  1
  C  C7  1  0.03483200  0.75712300  0.45983000  1
  C  C8  1  0.75712300  0.45983000  0.03483200  1
  C  C9  1  0.45983000  0.03483200  0.75712300  1
  C  C10  1  0.49924900  0.86699000  0.71658600  1
  C  C11  1  0.86699000  0.71658600  0.49924900  1
  C  C12  1  0.71152900  0.93728800  0.08011600  1
  C  C13  1  0.71658600  0.49924900  0.86699000  1
  C  C14  1  0.56569700  0.78938800  0.41973600  1
  C  C15  1  0.36557100  0.99175600  0.22158100  1
  C  C16  1  0.08011600  0.71152900  0.93728800  1
  C  C17  1  0.41973600  0.56569700  0.78938800  1
  C  C18  1  0.78938800  0.41973600  0.56569700  1
  C  C19  1  0.00337500  0.77961300  0.63541800  1
  C  C20  1  0.06094400  0.92179300  0.28581500  1
  C  C21  1  0.77961300  0.63541800  0.00337500  1
  C  C22  1  0.22158100  0.36557100  0.99175600  1
  C  C23  1  0.93728800  0.08011600  0.71152900  1
  C  C24  1  0.99175600  0.22158100  0.36557100  1
  C  C25  1  0.21001100  0.57891200  0.43906500  1
  C  C26  1  0.57891200  0.43906500  0.21001100  1
  C  C27  1  0.92179300  0.28581500  0.06094400  1
  C  C28  1  0.63541800  0.00337500  0.77961300  1
  C  C29  1  0.43906500  0.21001100  0.57891200  1
  C  C30  1  0.28093800  0.50363000  0.13440600  1
  C  C31  1  0.28581500  0.06094400  0.92179300  1
  C  C32  1  0.13440600  0.28093800  0.50363000  1
  C  C33  1  0.50363000  0.13440600  0.28093800  1
