# generated using pymatgen
data_Cu12Ni2C15
_symmetry_space_group_name_H-M   'P 1'
_cell_length_a   10.02812897
_cell_length_b   10.02812897
_cell_length_c   12.80715779
_cell_angle_alpha   70.98019060
_cell_angle_beta   70.98019060
_cell_angle_gamma   31.25919825
_symmetry_Int_Tables_number   1
_chemical_formula_structural   Cu12Ni2C15
_chemical_formula_sum   'Cu24 Ni4 C30'
_cell_volume   628.88957202
_cell_formula_units_Z   2
loop_
 _symmetry_equiv_pos_site_id
 _symmetry_equiv_pos_as_xyz
  1  'x, y, z'
loop_
 _atom_site_type_symbol
 _atom_site_label
 _atom_site_symmetry_multiplicity
 _atom_site_fract_x
 _atom_site_fract_y
 _atom_site_fract_z
 _atom_site_occupancy
  C  C0  1  0.89576700  0.06280300  0.87927100  1
  C  C1  1  0.93719700  0.10423300  0.62072900  1
  C  C2  1  0.10423300  0.93719700  0.12072900  1
  C  C3  1  0.06280300  0.89576700  0.37927100  1
  Ni  Ni4  1  0.99528800  0.68018400  0.77947400  1
  Ni  Ni5  1  0.31981600  0.00471200  0.72052600  1
  Ni  Ni6  1  0.00471300  0.31981600  0.22052600  1
  Ni  Ni7  1  0.68018400  0.99528700  0.27947400  1
  Cu  Cu8  1  0.26849800  0.27123100  0.81056400  1
  Cu  Cu9  1  0.72876900  0.73150200  0.68943600  1
  Cu  Cu10  1  0.73150200  0.72876900  0.18943600  1
  Cu  Cu11  1  0.27123100  0.26849800  0.31056400  1
  Cu  Cu12  1  0.44968200  0.25155500  0.93725300  1
  Cu  Cu13  1  0.74844500  0.55031800  0.56274700  1
  Cu  Cu14  1  0.55031800  0.74844500  0.06274700  1
  Cu  Cu15  1  0.25155500  0.44968200  0.43725300  1
  Cu  Cu16  1  0.56923800  0.12648200  0.05039600  1
  Cu  Cu17  1  0.87351800  0.43076200  0.44960400  1
  Cu  Cu18  1  0.43076200  0.87351800  0.94960400  1
  Cu  Cu19  1  0.12648200  0.56923800  0.55039600  1
  Cu  Cu20  1  0.55888200  0.27843500  0.51374600  1
  Cu  Cu21  1  0.72156500  0.44111800  0.98625400  1
  Cu  Cu22  1  0.44111800  0.72156500  0.48625400  1
  Cu  Cu23  1  0.27843500  0.55888200  0.01374600  1
  Cu  Cu24  1  0.76675700  0.01079900  0.58433900  1
  Cu  Cu25  1  0.98920100  0.23324300  0.91566100  1
  Cu  Cu26  1  0.23324300  0.98920100  0.41566100  1
  Cu  Cu27  1  0.01079900  0.76675700  0.08433900  1
  Cu  Cu28  1  0.42521500  0.49383400  0.75596900  1
  Cu  Cu29  1  0.50616600  0.57478500  0.74403100  1
  Cu  Cu30  1  0.57478500  0.50616600  0.24403100  1
  Cu  Cu31  1  0.49383400  0.42521500  0.25596900  1
  C  C32  1  0.02826500  0.80473200  0.76654500  1
  C  C33  1  0.19526800  0.97173500  0.73345500  1
  C  C34  1  0.97173500  0.19526800  0.23345500  1
  C  C35  1  0.80473200  0.02826500  0.26654500  1
  C  C36  1  0.89312100  0.72902300  0.68509600  1
  C  C37  1  0.27097700  0.10687900  0.81490400  1
  C  C38  1  0.10687900  0.27097700  0.31490400  1
  C  C39  1  0.72902300  0.89312100  0.18509600  1
  C  C40  1  0.25675600  0.38075900  0.81506200  1
  C  C41  1  0.61924100  0.74324400  0.68493800  1
  C  C42  1  0.74324400  0.61924100  0.18493800  1
  C  C43  1  0.38075900  0.25675600  0.31506200  1
  C  C44  1  0.52352400  0.23827300  0.98270300  1
  C  C45  1  0.76172700  0.47647600  0.51729700  1
  C  C46  1  0.47647600  0.76172700  0.01729700  1
  C  C47  1  0.23827300  0.52352400  0.48270300  1
  C  C48  1  0.73869800  0.12935600  0.53277300  1
  C  C49  1  0.87064400  0.26130200  0.96722700  1
  C  C50  1  0.26130200  0.87064400  0.46722700  1
  C  C51  1  0.12935600  0.73869800  0.03277300  1
  C  C52  1  0.58051300  0.41948700  0.75000000  1
  C  C53  1  0.41948700  0.58051300  0.25000000  1
  C  C54  1  0.79837000  0.77620500  0.88670300  1
  C  C55  1  0.22379500  0.20163000  0.61329700  1
  C  C56  1  0.20163000  0.22379500  0.11329700  1
  C  C57  1  0.77620500  0.79837000  0.38670300  1
