# generated using pymatgen
data_CuNiC4
_symmetry_space_group_name_H-M   'P 1'
_cell_length_a   7.45785100
_cell_length_b   7.47064700
_cell_length_c   10.55797800
_cell_angle_alpha   90.00000000
_cell_angle_beta   90.00000000
_cell_angle_gamma   90.00000000
_symmetry_Int_Tables_number   1
_chemical_formula_structural   CuNiC4
_chemical_formula_sum   'Cu8 Ni8 C32'
_cell_volume   588.23745075
_cell_formula_units_Z   8
loop_
 _symmetry_equiv_pos_site_id
 _symmetry_equiv_pos_as_xyz
  1  'x, y, z'
loop_
 _atom_site_type_symbol
 _atom_site_label
 _atom_site_symmetry_multiplicity
 _atom_site_fract_x
 _atom_site_fract_y
 _atom_site_fract_z
 _atom_site_occupancy
  Ni  Ni0  1  0.50000000  0.00076700  0.37383600  1
  Ni  Ni1  1  0.00000000  0.49928400  0.87433100  1
  Ni  Ni2  1  0.75010900  0.25088800  0.62394800  1
  Ni  Ni3  1  0.25010900  0.74911200  0.12394800  1
  Ni  Ni4  1  0.24989100  0.25088800  0.62394800  1
  Ni  Ni5  1  0.74989100  0.74911200  0.12394800  1
  Ni  Ni6  1  0.50000000  0.50071600  0.37433100  1
  Ni  Ni7  1  0.00000000  0.99923300  0.87383600  1
  Cu  Cu8  1  0.74687000  0.24917300  0.12202800  1
  Cu  Cu9  1  0.24687000  0.75082700  0.62202800  1
  Cu  Cu10  1  0.00000000  0.48764300  0.36776300  1
  Cu  Cu11  1  0.50000000  0.00426400  0.87551600  1
  Cu  Cu12  1  0.00000000  0.99573600  0.37551600  1
  Cu  Cu13  1  0.50000000  0.51235700  0.86776300  1
  Cu  Cu14  1  0.25313000  0.24917300  0.12202800  1
  Cu  Cu15  1  0.75313000  0.75082700  0.62202800  1
  C  C16  1  0.75735600  0.48678300  0.24689500  1
  C  C17  1  0.00000000  0.74517300  0.26305300  1
  C  C18  1  0.73640600  0.48831000  0.99689400  1
  C  C19  1  0.00000000  0.76162500  0.50457100  1
  C  C20  1  0.00000000  0.74828500  0.00015000  1
  C  C21  1  0.00000000  0.75080500  0.74027000  1
  C  C22  1  0.76359400  0.51169000  0.49689400  1
  C  C23  1  0.26418700  0.98998800  0.74756300  1
  C  C24  1  0.50000000  0.74802900  0.51175100  1
  C  C25  1  0.76418700  0.01001200  0.24756300  1
  C  C26  1  0.50000000  0.74658300  0.75148400  1
  C  C27  1  0.25735600  0.51321700  0.74689500  1
  C  C28  1  0.23640600  0.51169000  0.49689400  1
  C  C29  1  0.74236900  0.00944400  0.99712700  1
  C  C30  1  0.00000000  0.24517800  0.48880200  1
  C  C31  1  0.00000000  0.24953800  0.74938800  1
  C  C32  1  0.50000000  0.75046200  0.24938800  1
  C  C33  1  0.50000000  0.75482200  0.98880200  1
  C  C34  1  0.75763100  0.99055600  0.49712700  1
  C  C35  1  0.26359400  0.48831000  0.99689400  1
  C  C36  1  0.24264400  0.48678300  0.24689500  1
  C  C37  1  0.00000000  0.25341700  0.25148400  1
  C  C38  1  0.73581300  0.98998800  0.74756300  1
  C  C39  1  0.00000000  0.25197100  0.01175100  1
  C  C40  1  0.23581300  0.01001200  0.24756300  1
  C  C41  1  0.50000000  0.25171500  0.50015000  1
  C  C42  1  0.50000000  0.23837500  0.00457100  1
  C  C43  1  0.50000000  0.24919500  0.24027000  1
  C  C44  1  0.74264400  0.51321700  0.74689500  1
  C  C45  1  0.50000000  0.25482700  0.76305300  1
  C  C46  1  0.25763100  0.00944400  0.99712700  1
  C  C47  1  0.24236900  0.99055600  0.49712700  1
