# generated using pymatgen
data_Cu12NiC8
_symmetry_space_group_name_H-M   'P 1'
_cell_length_a   8.96885402
_cell_length_b   8.96885402
_cell_length_c   14.55772300
_cell_angle_alpha   90.00000000
_cell_angle_beta   90.00000000
_cell_angle_gamma   107.96285299
_symmetry_Int_Tables_number   1
_chemical_formula_structural   Cu12NiC8
_chemical_formula_sum   'Cu72 Ni6 C48'
_cell_volume   1113.94840051
_cell_formula_units_Z   6
loop_
 _symmetry_equiv_pos_site_id
 _symmetry_equiv_pos_as_xyz
  1  'x, y, z'
loop_
 _atom_site_type_symbol
 _atom_site_label
 _atom_site_symmetry_multiplicity
 _atom_site_fract_x
 _atom_site_fract_y
 _atom_site_fract_z
 _atom_site_occupancy
  Ni  Ni0  1  0.00000000  0.00000000  0.00000000  1
  Ni  Ni1  1  0.50000000  0.50000000  0.50000000  1
  Ni  Ni2  1  0.76711200  0.23288800  0.26056000  1
  Ni  Ni3  1  0.73288800  0.26711200  0.76056000  1
  Ni  Ni4  1  0.23288800  0.76711200  0.73944000  1
  Ni  Ni5  1  0.26711200  0.73288800  0.23944000  1
  Cu  Cu6  1  0.92533700  0.07466300  0.42190500  1
  Cu  Cu7  1  0.57466300  0.42533700  0.92190500  1
  Cu  Cu8  1  0.07466300  0.92533700  0.57809500  1
  Cu  Cu9  1  0.42533700  0.57466300  0.07809500  1
  Cu  Cu10  1  0.13707900  0.86292100  0.12505900  1
  Cu  Cu11  1  0.36292100  0.63707900  0.62505900  1
  Cu  Cu12  1  0.86292100  0.13707900  0.87494100  1
  Cu  Cu13  1  0.63707900  0.36292100  0.37494100  1
  Cu  Cu14  1  0.88228100  0.11771900  0.13079300  1
  Cu  Cu15  1  0.61771900  0.38228100  0.63079300  1
  Cu  Cu16  1  0.11771900  0.88228100  0.86920700  1
  Cu  Cu17  1  0.38228100  0.61771900  0.36920700  1
  Cu  Cu18  1  0.01480800  0.48519200  0.25000000  1
  Cu  Cu19  1  0.48519200  0.01480800  0.75000000  1
  Cu  Cu20  1  0.98519200  0.51480800  0.75000000  1
  Cu  Cu21  1  0.51480800  0.98519200  0.25000000  1
  Cu  Cu22  1  0.46543300  0.20035700  0.49779900  1
  Cu  Cu23  1  0.03456700  0.29964300  0.99779900  1
  Cu  Cu24  1  0.20035700  0.46543300  0.50220100  1
  Cu  Cu25  1  0.29964300  0.03456700  0.00220100  1
  Cu  Cu26  1  0.53456700  0.79964300  0.50220100  1
  Cu  Cu27  1  0.96543300  0.70035700  0.00220100  1
  Cu  Cu28  1  0.79964300  0.53456700  0.49779900  1
  Cu  Cu29  1  0.70035700  0.96543300  0.99779900  1
  Cu  Cu30  1  0.17551900  0.15784000  0.13206600  1
  Cu  Cu31  1  0.32448100  0.34216000  0.63206600  1
  Cu  Cu32  1  0.15784000  0.17551900  0.86793400  1
  Cu  Cu33  1  0.34216000  0.32448100  0.36793400  1
  Cu  Cu34  1  0.82448100  0.84216000  0.86793400  1
  Cu  Cu35  1  0.67551900  0.65784000  0.36793400  1
  Cu  Cu36  1  0.84216000  0.82448100  0.13206600  1
  Cu  Cu37  1  0.65784000  0.67551900  0.63206600  1
  Cu  Cu38  1  0.24723000  0.02246400  0.26763200  1
  Cu  Cu39  1  0.25277000  0.47753600  0.76763200  1
  Cu  Cu40  1  0.02246400  0.24723000  0.73236800  1
  Cu  Cu41  1  0.47753600  0.25277000  0.23236800  1
  Cu  Cu42  1  0.75277000  0.97753600  0.73236800  1
  Cu  Cu43  1  0.74723000  0.52246400  0.23236800  1
  Cu  Cu44  1  0.97753600  0.75277000  0.26763200  1
  Cu  Cu45  1  0.52246400  0.74723000  0.76763200  1
  Cu  Cu46  1  0.20144800  0.06196300  0.43406000  1
  Cu  Cu47  1  0.29855200  0.43803700  0.93406000  1
  Cu  Cu48  1  0.06196300  0.20144800  0.56594000  1
  Cu  Cu49  1  0.43803700  0.29855200  0.06594000  1
  Cu  Cu50  1  0.79855200  0.93803700  0.56594000  1
  Cu  Cu51  1  0.70144800  0.56196300  0.06594000  1
  Cu  Cu52  1  0.93803700  0.79855200  0.43406000  1
  Cu  Cu53  1  0.56196300  0.70144800  0.93406000  1
  Cu  Cu54  1  0.04956700  0.21244800  0.27984300  1
  Cu  Cu55  1  0.45043300  0.28755200  0.77984300  1
  Cu  Cu56  1  0.21244800  0.04956700  0.72015700  1
  Cu  Cu57  1  0.28755200  0.45043300  0.22015700  1
  Cu  Cu58  1  0.95043300  0.78755200  0.72015700  1
  Cu  Cu59  1  0.54956700  0.71244800  0.22015700  1
  Cu  Cu60  1  0.78755200  0.95043300  0.27984300  1
  Cu  Cu61  1  0.71244800  0.54956700  0.77984300  1
  Cu  Cu62  1  0.91702900  0.34958300  0.41209700  1
  Cu  Cu63  1  0.58297100  0.15041700  0.91209700  1
  Cu  Cu64  1  0.34958300  0.91702900  0.58790300  1
  Cu  Cu65  1  0.15041700  0.58297100  0.08790300  1
  Cu  Cu66  1  0.08297100  0.65041700  0.58790300  1
  Cu  Cu67  1  0.41702900  0.84958300  0.08790300  1
  Cu  Cu68  1  0.65041700  0.08297100  0.41209700  1
  Cu  Cu69  1  0.84958300  0.41702900  0.91209700  1
  Cu  Cu70  1  0.37012500  0.89621800  0.39612000  1
  Cu  Cu71  1  0.12987500  0.60378200  0.89612000  1
  Cu  Cu72  1  0.89621800  0.37012500  0.60388000  1
  Cu  Cu73  1  0.60378200  0.12987500  0.10388000  1
  Cu  Cu74  1  0.62987500  0.10378200  0.60388000  1
  Cu  Cu75  1  0.87012500  0.39621800  0.10388000  1
  Cu  Cu76  1  0.10378200  0.62987500  0.39612000  1
  Cu  Cu77  1  0.39621800  0.87012500  0.89612000  1
  C  C78  1  0.17380100  0.82619900  0.48168100  1
  C  C79  1  0.32619900  0.67380100  0.98168100  1
  C  C80  1  0.82619900  0.17380100  0.51831900  1
  C  C81  1  0.67380100  0.32619900  0.01831900  1
  C  C82  1  0.29498500  0.70501500  0.49806000  1
  C  C83  1  0.20501500  0.79498500  0.99806000  1
  C  C84  1  0.70501500  0.29498500  0.50194000  1
  C  C85  1  0.79498500  0.20501500  0.00194000  1
  C  C86  1  0.72713000  0.72713000  0.50000000  1
  C  C87  1  0.77287000  0.77287000  0.00000000  1
  C  C88  1  0.27287000  0.27287000  0.50000000  1
  C  C89  1  0.22713000  0.22713000  0.00000000  1
  C  C90  1  0.11635600  0.26565900  0.42115900  1
  C  C91  1  0.38364400  0.23434100  0.92115900  1
  C  C92  1  0.26565900  0.11635600  0.57884100  1
  C  C93  1  0.23434100  0.38364400  0.07884100  1
  C  C94  1  0.88364400  0.73434100  0.57884100  1
  C  C95  1  0.61635600  0.76565900  0.07884100  1
  C  C96  1  0.73434100  0.88364400  0.42115900  1
  C  C97  1  0.76565900  0.61635600  0.92115900  1
  C  C98  1  0.00990900  0.99009100  0.20560300  1
  C  C99  1  0.49009100  0.50990900  0.70560300  1
  C  C100  1  0.99009100  0.00990900  0.79439700  1
  C  C101  1  0.50990900  0.49009100  0.29439700  1
  C  C102  1  0.02509700  0.97490300  0.32641400  1
  C  C103  1  0.47490300  0.52509700  0.82641400  1
  C  C104  1  0.97490300  0.02509700  0.67358600  1
  C  C105  1  0.52509700  0.47490300  0.17358600  1
  C  C106  1  0.14376100  0.85623900  0.36114000  1
  C  C107  1  0.35623900  0.64376100  0.86114000  1
  C  C108  1  0.85623900  0.14376100  0.63886000  1
  C  C109  1  0.64376100  0.35623900  0.13886000  1
  C  C110  1  0.06440300  0.33951100  0.15199500  1
  C  C111  1  0.43559700  0.16048900  0.65199500  1
  C  C112  1  0.33951100  0.06440300  0.84800500  1
  C  C113  1  0.16048900  0.43559700  0.34800500  1
  C  C114  1  0.93559700  0.66048900  0.84800500  1
  C  C115  1  0.56440300  0.83951100  0.34800500  1
  C  C116  1  0.66048900  0.93559700  0.15199500  1
  C  C117  1  0.83951100  0.56440300  0.65199500  1
  C  C118  1  0.44609200  0.13471200  0.35736500  1
  C  C119  1  0.05390800  0.36528800  0.85736500  1
  C  C120  1  0.13471200  0.44609200  0.64263500  1
  C  C121  1  0.36528800  0.05390800  0.14263500  1
  C  C122  1  0.55390800  0.86528800  0.64263500  1
  C  C123  1  0.94609200  0.63471200  0.14263500  1
  C  C124  1  0.86528800  0.55390800  0.35736500  1
  C  C125  1  0.63471200  0.94609200  0.85736500  1
