# generated using pymatgen
data_CuNi3C37
_symmetry_space_group_name_H-M   'P 1'
_cell_length_a   8.80718894
_cell_length_b   8.80718894
_cell_length_c   8.80718903
_cell_angle_alpha   60.83288008
_cell_angle_beta   60.83288008
_cell_angle_gamma   60.83287372
_symmetry_Int_Tables_number   1
_chemical_formula_structural   CuNi3C37
_chemical_formula_sum   'Cu1 Ni3 C37'
_cell_volume   492.12794929
_cell_formula_units_Z   1
loop_
 _symmetry_equiv_pos_site_id
 _symmetry_equiv_pos_as_xyz
  1  'x, y, z'
loop_
 _atom_site_type_symbol
 _atom_site_label
 _atom_site_symmetry_multiplicity
 _atom_site_fract_x
 _atom_site_fract_y
 _atom_site_fract_z
 _atom_site_occupancy
  C  C0  1  0.64896300  0.23459200  0.81783800  1
  C  C1  1  0.23459200  0.81783800  0.64896300  1
  C  C2  1  0.22457600  0.39819600  0.72212100  1
  C  C3  1  0.01584800  0.01584800  0.01584800  1
  C  C4  1  0.81783800  0.64896300  0.23459200  1
  C  C5  1  0.72212100  0.22457600  0.39819600  1
  C  C6  1  0.39819600  0.72212100  0.22457600  1
  Ni  Ni7  1  0.85049100  0.85049100  0.85049100  1
  Ni  Ni8  1  0.35253100  0.35253100  0.35253100  1
  Ni  Ni9  1  0.64613900  0.64613900  0.64613900  1
  Cu  Cu10  1  0.14650100  0.14650100  0.14650100  1
  C  C11  1  0.24504100  0.54210000  0.96204000  1
  C  C12  1  0.96204000  0.24504100  0.54210000  1
  C  C13  1  0.54210000  0.96204000  0.24504100  1
  C  C14  1  0.44765800  0.05023400  0.74873200  1
  C  C15  1  0.05023400  0.74873200  0.44765800  1
  C  C16  1  0.74873200  0.44765800  0.05023400  1
  C  C17  1  0.12723500  0.28786400  0.50901300  1
  C  C18  1  0.50901300  0.12723500  0.28786400  1
  C  C19  1  0.28786400  0.50901300  0.12723500  1
  C  C20  1  0.07759800  0.72291700  0.94727000  1
  C  C21  1  0.40147000  0.56697300  0.77550900  1
  C  C22  1  0.20130600  0.37874200  0.98515100  1
  C  C23  1  0.94727000  0.07759800  0.72291700  1
  C  C24  1  0.77550900  0.40147000  0.56697300  1
  C  C25  1  0.56697300  0.77550900  0.40147000  1
  C  C26  1  0.60865700  0.03247200  0.79193300  1
  C  C27  1  0.25644500  0.09737900  0.89990300  1
  C  C28  1  0.03247200  0.79193300  0.60865700  1
  C  C29  1  0.98515100  0.20130600  0.37874200  1
  C  C30  1  0.72291700  0.94727000  0.07759800  1
  C  C31  1  0.37874200  0.98515100  0.20130600  1
  C  C32  1  0.44410700  0.22988600  0.57470600  1
  C  C33  1  0.22988600  0.57470600  0.44410700  1
  C  C34  1  0.09737900  0.89990300  0.25644500  1
  C  C35  1  0.79193300  0.60865700  0.03247200  1
  C  C36  1  0.57470600  0.44410700  0.22988600  1
  C  C37  1  0.89990300  0.25644500  0.09737900  1
  C  C38  1  0.71783900  0.47387700  0.88311800  1
  C  C39  1  0.47387700  0.88311800  0.71783900  1
  C  C40  1  0.88311800  0.71783900  0.47387700  1
