# generated using pymatgen
data_CuNi3C8
_symmetry_space_group_name_H-M   'P 1'
_cell_length_a   7.88279000
_cell_length_b   9.17149300
_cell_length_c   17.16001500
_cell_angle_alpha   90.00000000
_cell_angle_beta   90.00000000
_cell_angle_gamma   90.00000000
_symmetry_Int_Tables_number   1
_chemical_formula_structural   CuNi3C8
_chemical_formula_sum   'Cu8 Ni24 C64'
_cell_volume   1240.61680318
_cell_formula_units_Z   8
loop_
 _symmetry_equiv_pos_site_id
 _symmetry_equiv_pos_as_xyz
  1  'x, y, z'
loop_
 _atom_site_type_symbol
 _atom_site_label
 _atom_site_symmetry_multiplicity
 _atom_site_fract_x
 _atom_site_fract_y
 _atom_site_fract_z
 _atom_site_occupancy
  Ni  Ni0  1  0.25017500  0.18809700  0.81065100  1
  Ni  Ni1  1  0.74982500  0.18809700  0.81065100  1
  Ni  Ni2  1  0.24849300  0.60274300  0.88582300  1
  Ni  Ni3  1  0.75150700  0.60274300  0.88582300  1
  Ni  Ni4  1  0.75035700  0.30998700  0.00000000  1
  Ni  Ni5  1  0.24722500  0.95065100  0.00000000  1
  Ni  Ni6  1  0.24964300  0.30998700  0.00000000  1
  Ni  Ni7  1  0.75277500  0.95065100  0.00000000  1
  Ni  Ni8  1  0.24849300  0.60274300  0.11417700  1
  Ni  Ni9  1  0.75150700  0.60274300  0.11417700  1
  Ni  Ni10  1  0.25017500  0.18809700  0.18934900  1
  Ni  Ni11  1  0.74982500  0.18809700  0.18934900  1
  Ni  Ni12  1  0.75017500  0.81190300  0.31065100  1
  Ni  Ni13  1  0.24982500  0.81190300  0.31065100  1
  Ni  Ni14  1  0.74849300  0.39725700  0.38582300  1
  Ni  Ni15  1  0.25150700  0.39725700  0.38582300  1
  Ni  Ni16  1  0.25035700  0.69001300  0.50000000  1
  Ni  Ni17  1  0.25277500  0.04934900  0.50000000  1
  Ni  Ni18  1  0.74722500  0.04934900  0.50000000  1
  Ni  Ni19  1  0.74964300  0.69001300  0.50000000  1
  Ni  Ni20  1  0.74849300  0.39725700  0.61417700  1
  Ni  Ni21  1  0.25150700  0.39725700  0.61417700  1
  Ni  Ni22  1  0.75017500  0.81190300  0.68934900  1
  Ni  Ni23  1  0.24982500  0.81190300  0.68934900  1
  Cu  Cu24  1  0.50000000  0.49777900  0.74988800  1
  Cu  Cu25  1  0.50000000  0.90524900  0.84152200  1
  Cu  Cu26  1  0.50000000  0.90524900  0.15847800  1
  Cu  Cu27  1  0.50000000  0.49777900  0.25011200  1
  Cu  Cu28  1  0.00000000  0.50222100  0.24988800  1
  Cu  Cu29  1  0.00000000  0.09475100  0.34152200  1
  Cu  Cu30  1  0.00000000  0.09475100  0.65847800  1
  Cu  Cu31  1  0.00000000  0.50222100  0.75011200  1
  C  C32  1  0.75000000  0.00000000  0.75000000  1
  C  C33  1  0.25000000  0.00000000  0.75000000  1
  C  C34  1  0.76318600  0.66923200  0.77466100  1
  C  C35  1  0.23681400  0.66923200  0.77466100  1
  C  C36  1  0.00000000  0.18916000  0.80392500  1
  C  C37  1  0.50000000  0.17572200  0.81550000  1
  C  C38  1  0.50000000  0.59482600  0.87638700  1
  C  C39  1  0.75142600  0.37925800  0.88130600  1
  C  C40  1  0.24857400  0.37925800  0.88130600  1
  C  C41  1  0.00000000  0.59961100  0.88817700  1
  C  C42  1  0.26214700  0.80515700  0.91810600  1
  C  C43  1  0.73785300  0.80515700  0.91810600  1
  C  C44  1  0.75906500  0.12564000  0.92466000  1
  C  C45  1  0.24093500  0.12564000  0.92466000  1
  C  C46  1  0.00000000  0.31577100  0.00000000  1
  C  C47  1  0.25897600  0.54049900  0.00000000  1
  C  C48  1  0.50000000  0.96610600  0.00000000  1
  C  C49  1  0.50000000  0.30469900  0.00000000  1
  C  C50  1  0.00000000  0.94457300  0.00000000  1
  C  C51  1  0.74102400  0.54049900  0.00000000  1
  C  C52  1  0.75906500  0.12564000  0.07534000  1
  C  C53  1  0.24093500  0.12564000  0.07534000  1
  C  C54  1  0.26214700  0.80515700  0.08189400  1
  C  C55  1  0.73785300  0.80515700  0.08189400  1
  C  C56  1  0.00000000  0.59961100  0.11182300  1
  C  C57  1  0.75142600  0.37925800  0.11869400  1
  C  C58  1  0.24857400  0.37925800  0.11869400  1
  C  C59  1  0.50000000  0.59482600  0.12361300  1
  C  C60  1  0.50000000  0.17572200  0.18450000  1
  C  C61  1  0.00000000  0.18916000  0.19607500  1
  C  C62  1  0.76318600  0.66923200  0.22533900  1
  C  C63  1  0.23681400  0.66923200  0.22533900  1
  C  C64  1  0.75000000  0.00000000  0.25000000  1
  C  C65  1  0.25000000  0.00000000  0.25000000  1
  C  C66  1  0.26318600  0.33076800  0.27466100  1
  C  C67  1  0.73681400  0.33076800  0.27466100  1
  C  C68  1  0.50000000  0.81084000  0.30392500  1
  C  C69  1  0.00000000  0.82427800  0.31550000  1
  C  C70  1  0.00000000  0.40517400  0.37638700  1
  C  C71  1  0.25142600  0.62074200  0.38130600  1
  C  C72  1  0.74857400  0.62074200  0.38130600  1
  C  C73  1  0.50000000  0.40038900  0.38817700  1
  C  C74  1  0.76214700  0.19484300  0.41810600  1
  C  C75  1  0.23785300  0.19484300  0.41810600  1
  C  C76  1  0.25906500  0.87436000  0.42466000  1
  C  C77  1  0.74093500  0.87436000  0.42466000  1
  C  C78  1  0.75897600  0.45950100  0.50000000  1
  C  C79  1  0.00000000  0.03389400  0.50000000  1
  C  C80  1  0.00000000  0.69530100  0.50000000  1
  C  C81  1  0.24102400  0.45950100  0.50000000  1
  C  C82  1  0.50000000  0.68422900  0.50000000  1
  C  C83  1  0.50000000  0.05542700  0.50000000  1
  C  C84  1  0.25906500  0.87436000  0.57534000  1
  C  C85  1  0.74093500  0.87436000  0.57534000  1
  C  C86  1  0.76214700  0.19484300  0.58189400  1
  C  C87  1  0.23785300  0.19484300  0.58189400  1
  C  C88  1  0.50000000  0.40038900  0.61182300  1
  C  C89  1  0.25142600  0.62074200  0.61869400  1
  C  C90  1  0.74857400  0.62074200  0.61869400  1
  C  C91  1  0.00000000  0.40517400  0.62361300  1
  C  C92  1  0.00000000  0.82427800  0.68450000  1
  C  C93  1  0.50000000  0.81084000  0.69607500  1
  C  C94  1  0.26318600  0.33076800  0.72533900  1
  C  C95  1  0.73681400  0.33076800  0.72533900  1
