# generated using pymatgen
data_Cu3NiC48
_symmetry_space_group_name_H-M   'P 1'
_cell_length_a   6.62461300
_cell_length_b   8.50343700
_cell_length_c   10.01419855
_cell_angle_alpha   85.00857420
_cell_angle_beta   90.00000000
_cell_angle_gamma   90.00000000
_symmetry_Int_Tables_number   1
_chemical_formula_structural   Cu3NiC48
_chemical_formula_sum   'Cu3 Ni1 C48'
_cell_volume   561.98033115
_cell_formula_units_Z   1
loop_
 _symmetry_equiv_pos_site_id
 _symmetry_equiv_pos_as_xyz
  1  'x, y, z'
loop_
 _atom_site_type_symbol
 _atom_site_label
 _atom_site_symmetry_multiplicity
 _atom_site_fract_x
 _atom_site_fract_y
 _atom_site_fract_z
 _atom_site_occupancy
  C  C0  1  0.00000000  0.90291900  0.61842800  1
  C  C1  1  0.00000000  0.90712700  0.11863600  1
  C  C2  1  0.22360400  0.72185400  0.87553900  1
  C  C3  1  0.77639600  0.72185400  0.87553900  1
  C  C4  1  0.22336900  0.72401700  0.37640200  1
  C  C5  1  0.77663100  0.72401700  0.37640200  1
  C  C6  1  0.72474300  0.27768800  0.62400000  1
  C  C7  1  0.27525700  0.27768800  0.62400000  1
  C  C8  1  0.72270000  0.27706500  0.12330800  1
  C  C9  1  0.27730000  0.27706500  0.12330800  1
  C  C10  1  0.50000000  0.09508400  0.88237100  1
  C  C11  1  0.50000000  0.09464400  0.38256600  1
  Ni  Ni12  1  0.00000000  0.33954400  0.38976000  1
  Cu  Cu13  1  0.50000000  0.66988100  0.60403300  1
  Cu  Cu14  1  0.50000000  0.67005000  0.10357800  1
  Cu  Cu15  1  0.00000000  0.32989000  0.89689900  1
  C  C16  1  0.00000000  0.58769900  0.64110600  1
  C  C17  1  0.00000000  0.59126900  0.13811800  1
  C  C18  1  0.50000000  0.41106600  0.86001000  1
  C  C19  1  0.50000000  0.41092300  0.36035400  1
  C  C20  1  0.50000000  0.96445200  0.65060900  1
  C  C21  1  0.50000000  0.96445900  0.15039700  1
  C  C22  1  0.00000000  0.03537100  0.84963100  1
  C  C23  1  0.00000000  0.03286900  0.35104000  1
  C  C24  1  0.50000000  0.92473200  0.52790100  1
  C  C25  1  0.00000000  0.88956000  0.82254900  1
  C  C26  1  0.50000000  0.92498500  0.02771100  1
  C  C27  1  0.50000000  0.85148400  0.74735700  1
  C  C28  1  0.00000000  0.88694000  0.32166000  1
  C  C29  1  0.50000000  0.85137100  0.24712900  1
  C  C30  1  0.18241400  0.69001700  0.58788700  1
  C  C31  1  0.81758600  0.69001700  0.58788700  1
  C  C32  1  0.18293600  0.69209200  0.08482000  1
  C  C33  1  0.81706400  0.69209200  0.08482000  1
  C  C34  1  0.50000000  0.57783700  0.91043600  1
  C  C35  1  0.00000000  0.56973000  0.79797900  1
  C  C36  1  0.50000000  0.57778800  0.41062300  1
  C  C37  1  0.00000000  0.57522800  0.29488100  1
  C  C38  1  0.50000000  0.43046600  0.70336900  1
  C  C39  1  0.00000000  0.42024800  0.59141500  1
  C  C40  1  0.50000000  0.43031900  0.20359900  1
  C  C41  1  0.00000000  0.42196000  0.09168200  1
  C  C42  1  0.31751700  0.30840100  0.91293000  1
  C  C43  1  0.68248300  0.30840100  0.91293000  1
  C  C44  1  0.68326100  0.30880300  0.41281400  1
  C  C45  1  0.31673900  0.30880300  0.41281400  1
  C  C46  1  0.00000000  0.14880300  0.75310800  1
  C  C47  1  0.50000000  0.11068000  0.67762000  1
  C  C48  1  0.00000000  0.14579700  0.25402200  1
  C  C49  1  0.00000000  0.07523500  0.97244500  1
  C  C50  1  0.50000000  0.11062000  0.17757100  1
  C  C51  1  0.00000000  0.06909900  0.47400600  1
