# generated using pymatgen
data_CuNiC6
_symmetry_space_group_name_H-M   'P 1'
_cell_length_a   5.83472605
_cell_length_b   5.83472605
_cell_length_c   9.13350607
_cell_angle_alpha   87.42568713
_cell_angle_beta   87.42568713
_cell_angle_gamma   58.71712896
_symmetry_Int_Tables_number   1
_chemical_formula_structural   CuNiC6
_chemical_formula_sum   'Cu3 Ni3 C18'
_cell_volume   265.38175935
_cell_formula_units_Z   3
loop_
 _symmetry_equiv_pos_site_id
 _symmetry_equiv_pos_as_xyz
  1  'x, y, z'
loop_
 _atom_site_type_symbol
 _atom_site_label
 _atom_site_symmetry_multiplicity
 _atom_site_fract_x
 _atom_site_fract_y
 _atom_site_fract_z
 _atom_site_occupancy
  Ni  Ni0  1  0.34333400  0.83597400  0.78488300  1
  Ni  Ni1  1  0.83597400  0.34333400  0.78488300  1
  Ni  Ni2  1  0.17060800  0.17060800  0.28170100  1
  Cu  Cu3  1  0.83345400  0.83345400  0.79053000  1
  Cu  Cu4  1  0.16819600  0.66571000  0.28873300  1
  Cu  Cu5  1  0.66571000  0.16819600  0.28873300  1
  C  C6  1  0.66835600  0.66835600  0.50875800  1
  C  C7  1  0.33382500  0.33382500  0.00874800  1
  C  C8  1  0.33804100  0.83852000  0.40522100  1
  C  C9  1  0.51922000  0.51922000  0.66656300  1
  C  C10  1  0.64986800  0.64986800  0.89071400  1
  C  C11  1  0.01522900  0.01522900  0.69773500  1
  C  C12  1  0.00989700  0.00989700  0.19795100  1
  C  C13  1  0.83852000  0.33804100  0.40522100  1
  C  C14  1  0.50005200  0.96541400  0.65462700  1
  C  C15  1  0.96541400  0.50005200  0.65462700  1
  C  C16  1  0.16689800  0.16689800  0.89975200  1
  C  C17  1  0.84116600  0.84116600  0.41013800  1
  C  C18  1  0.02682600  0.46796300  0.15387200  1
  C  C19  1  0.46796300  0.02682600  0.15387200  1
  C  C20  1  0.32467700  0.32467700  0.38132500  1
  C  C21  1  0.16881500  0.67549600  0.90858700  1
  C  C22  1  0.47806200  0.47806200  0.15828000  1
  C  C23  1  0.67549600  0.16881500  0.90858700  1
