# generated using pymatgen
data_Cu(Ni3C8)2
_symmetry_space_group_name_H-M   'P 1'
_cell_length_a   7.41173812
_cell_length_b   7.41173812
_cell_length_c   7.41173812
_cell_angle_alpha   109.47122063
_cell_angle_beta   109.47122063
_cell_angle_gamma   109.47122063
_symmetry_Int_Tables_number   1
_chemical_formula_structural   Cu(Ni3C8)2
_chemical_formula_sum   'Cu1 Ni6 C16'
_cell_volume   313.42837238
_cell_formula_units_Z   1
loop_
 _symmetry_equiv_pos_site_id
 _symmetry_equiv_pos_as_xyz
  1  'x, y, z'
loop_
 _atom_site_type_symbol
 _atom_site_label
 _atom_site_symmetry_multiplicity
 _atom_site_fract_x
 _atom_site_fract_y
 _atom_site_fract_z
 _atom_site_occupancy
  C  C0  1  0.66379900  0.00000000  0.00000000  1
  C  C1  1  0.00000000  0.00000000  0.66379900  1
  C  C2  1  0.00000000  0.66379900  0.00000000  1
  C  C3  1  0.33620100  0.33620100  0.33620100  1
  Ni  Ni4  1  0.25000000  0.75000000  0.50000000  1
  Ni  Ni5  1  0.75000000  0.25000000  0.50000000  1
  Ni  Ni6  1  0.75000000  0.50000000  0.25000000  1
  Ni  Ni7  1  0.25000000  0.50000000  0.75000000  1
  Ni  Ni8  1  0.50000000  0.75000000  0.25000000  1
  Ni  Ni9  1  0.50000000  0.25000000  0.75000000  1
  Cu  Cu10  1  0.00000000  0.00000000  0.00000000  1
  C  C11  1  0.71019400  0.28516800  0.28516800  1
  C  C12  1  0.28516800  0.71019400  0.28516800  1
  C  C13  1  0.28980600  0.57497400  0.57497400  1
  C  C14  1  0.57497400  0.57497400  0.28980600  1
  C  C15  1  0.42502600  0.71483200  0.00000000  1
  C  C16  1  0.00000000  0.71483200  0.42502600  1
  C  C17  1  0.57497400  0.28980600  0.57497400  1
  C  C18  1  0.71483200  0.00000000  0.42502600  1
  C  C19  1  0.42502600  0.00000000  0.71483200  1
  C  C20  1  0.71483200  0.42502600  0.00000000  1
  C  C21  1  0.28516800  0.28516800  0.71019400  1
  C  C22  1  0.00000000  0.42502600  0.71483200  1
