# generated using pymatgen
data_Cu2NiC7
_symmetry_space_group_name_H-M   'P 1'
_cell_length_a   5.86868010
_cell_length_b   5.86868010
_cell_length_c   5.45920759
_cell_angle_alpha   88.00347488
_cell_angle_beta   88.00347488
_cell_angle_gamma   70.19728216
_symmetry_Int_Tables_number   1
_chemical_formula_structural   Cu2NiC7
_chemical_formula_sum   'Cu2 Ni1 C7'
_cell_volume   176.74354701
_cell_formula_units_Z   1
loop_
 _symmetry_equiv_pos_site_id
 _symmetry_equiv_pos_as_xyz
  1  'x, y, z'
loop_
 _atom_site_type_symbol
 _atom_site_label
 _atom_site_symmetry_multiplicity
 _atom_site_fract_x
 _atom_site_fract_y
 _atom_site_fract_z
 _atom_site_occupancy
  Ni  Ni0  1  0.00000000  0.00000000  0.00000000  1
  Cu  Cu1  1  0.35848600  0.35848600  0.62475000  1
  Cu  Cu2  1  0.64151400  0.64151400  0.37525000  1
  C  C3  1  0.50000000  0.50000000  0.50000000  1
  C  C4  1  0.92090200  0.29340800  0.85830700  1
  C  C5  1  0.07909800  0.70659200  0.14169300  1
  C  C6  1  0.29340800  0.92090200  0.85830700  1
  C  C7  1  0.89267800  0.89267800  0.74401800  1
  C  C8  1  0.10732200  0.10732200  0.25598200  1
  C  C9  1  0.70659200  0.07909800  0.14169300  1
