# generated using pymatgen
data_Cu3NiC30
_symmetry_space_group_name_H-M   'P 1'
_cell_length_a   8.92356885
_cell_length_b   8.92356896
_cell_length_c   8.92356959
_cell_angle_alpha   58.78011681
_cell_angle_beta   58.78011873
_cell_angle_gamma   58.78011307
_symmetry_Int_Tables_number   1
_chemical_formula_structural   Cu3NiC30
_chemical_formula_sum   'Cu3 Ni1 C30'
_cell_volume   488.45987687
_cell_formula_units_Z   1
loop_
 _symmetry_equiv_pos_site_id
 _symmetry_equiv_pos_as_xyz
  1  'x, y, z'
loop_
 _atom_site_type_symbol
 _atom_site_label
 _atom_site_symmetry_multiplicity
 _atom_site_fract_x
 _atom_site_fract_y
 _atom_site_fract_z
 _atom_site_occupancy
  Ni  Ni0  1  0.85863900  0.85863900  0.85863900  1
  C  C1  1  0.03463300  0.75167300  0.46987700  1
  C  C2  1  0.46987700  0.03463300  0.75167300  1
  C  C3  1  0.75167300  0.46987700  0.03463300  1
  C  C4  1  0.24556200  0.53999600  0.96288900  1
  C  C5  1  0.53999600  0.96288900  0.24556200  1
  C  C6  1  0.96288900  0.24556200  0.53999600  1
  Cu  Cu7  1  0.14184300  0.14184300  0.14184300  1
  Cu  Cu8  1  0.35638500  0.35638500  0.35638500  1
  Cu  Cu9  1  0.64181300  0.64181300  0.64181300  1
  C  C10  1  0.12488400  0.29705700  0.49886500  1
  C  C11  1  0.29705700  0.49886500  0.12488400  1
  C  C12  1  0.05636700  0.92314200  0.28720500  1
  C  C13  1  0.49886500  0.12488400  0.29705700  1
  C  C14  1  0.21021900  0.58357600  0.42472600  1
  C  C15  1  0.01372000  0.76997600  0.63609100  1
  C  C16  1  0.28720500  0.05636700  0.92314200  1
  C  C17  1  0.42472600  0.21021900  0.58357600  1
  C  C18  1  0.58357600  0.42472600  0.21021900  1
  C  C19  1  0.22598900  0.36385900  0.98770600  1
  C  C20  1  0.08331600  0.71316700  0.94210000  1
  C  C21  1  0.36385900  0.98770600  0.22598900  1
  C  C22  1  0.63609100  0.01372000  0.76997600  1
  C  C23  1  0.92314200  0.28720500  0.05636700  1
  C  C24  1  0.76997600  0.63609100  0.01372000  1
  C  C25  1  0.43031700  0.55829100  0.78649900  1
  C  C26  1  0.55829100  0.78649900  0.43031700  1
  C  C27  1  0.71316700  0.94210000  0.08331600  1
  C  C28  1  0.98770600  0.22598900  0.36385900  1
  C  C29  1  0.78649900  0.43031700  0.55829100  1
  C  C30  1  0.49962700  0.85876800  0.72122300  1
  C  C31  1  0.94210000  0.08331600  0.71316700  1
  C  C32  1  0.72122300  0.49962700  0.85876800  1
  C  C33  1  0.85876800  0.72122300  0.49962700  1
