# generated using pymatgen
data_Cu2NiC13
_symmetry_space_group_name_H-M   'P 1'
_cell_length_a   8.90124551
_cell_length_b   8.90124551
_cell_length_c   8.90124551
_cell_angle_alpha   139.84338897
_cell_angle_beta   139.84338897
_cell_angle_gamma   58.09116741
_symmetry_Int_Tables_number   1
_chemical_formula_structural   Cu2NiC13
_chemical_formula_sum   'Cu2 Ni1 C13'
_cell_volume   290.66841562
_cell_formula_units_Z   1
loop_
 _symmetry_equiv_pos_site_id
 _symmetry_equiv_pos_as_xyz
  1  'x, y, z'
loop_
 _atom_site_type_symbol
 _atom_site_label
 _atom_site_symmetry_multiplicity
 _atom_site_fract_x
 _atom_site_fract_y
 _atom_site_fract_z
 _atom_site_occupancy
  Ni  Ni0  1  0.00000000  0.00000000  0.00000000  1
  Cu  Cu1  1  0.25000000  0.75000000  0.50000000  1
  Cu  Cu2  1  0.75000000  0.25000000  0.50000000  1
  C  C3  1  0.37479600  0.37479600  0.00000000  1
  C  C4  1  0.62520400  0.62520400  0.00000000  1
  C  C5  1  0.50000000  0.50000000  0.00000000  1
  C  C6  1  0.14151100  0.14151100  0.55033800  1
  C  C7  1  0.59117300  0.14151100  0.00000000  1
  C  C8  1  0.14151100  0.59117300  0.00000000  1
  C  C9  1  0.59117300  0.59117300  0.44966200  1
  C  C10  1  0.74972400  0.74972400  0.00000000  1
  C  C11  1  0.25027600  0.25027600  0.00000000  1
  C  C12  1  0.40882700  0.40882700  0.55033800  1
  C  C13  1  0.85848900  0.40882700  0.00000000  1
  C  C14  1  0.40882700  0.85848900  0.00000000  1
  C  C15  1  0.85848900  0.85848900  0.44966200  1
