# generated using pymatgen
data_Cu2Ni2C11
_symmetry_space_group_name_H-M   'P 1'
_cell_length_a   6.75586100
_cell_length_b   7.93524616
_cell_length_c   8.19459929
_cell_angle_alpha   70.97404970
_cell_angle_beta   65.65599799
_cell_angle_gamma   64.80585301
_symmetry_Int_Tables_number   1
_chemical_formula_structural   Cu2Ni2C11
_chemical_formula_sum   'Cu4 Ni4 C22'
_cell_volume   356.08442289
_cell_formula_units_Z   2
loop_
 _symmetry_equiv_pos_site_id
 _symmetry_equiv_pos_as_xyz
  1  'x, y, z'
loop_
 _atom_site_type_symbol
 _atom_site_label
 _atom_site_symmetry_multiplicity
 _atom_site_fract_x
 _atom_site_fract_y
 _atom_site_fract_z
 _atom_site_occupancy
  C  C0  1  0.26316300  0.25000000  0.75000000  1
  C  C1  1  0.73683700  0.75000000  0.25000000  1
  C  C2  1  0.05317200  0.00049100  0.77323100  1
  C  C3  1  0.82689400  0.49950900  0.72676900  1
  C  C4  1  0.94682800  0.99950900  0.22676900  1
  C  C5  1  0.17310600  0.50049100  0.27323100  1
  C  C6  1  0.13964300  0.09879300  0.55903100  1
  C  C7  1  0.79746700  0.40120700  0.94096900  1
  C  C8  1  0.86035700  0.90120700  0.44096900  1
  C  C9  1  0.20253300  0.59879300  0.05903100  1
  C  C10  1  0.32474200  0.92724300  0.65078000  1
  C  C11  1  0.90276500  0.57275700  0.84922000  1
  C  C12  1  0.67525800  0.07275700  0.34922000  1
  C  C13  1  0.09723500  0.42724300  0.15078000  1
  Ni  Ni14  1  0.61332200  0.96877600  0.92068500  1
  Ni  Ni15  1  0.50278300  0.53122400  0.57931500  1
  Ni  Ni16  1  0.38667800  0.03122400  0.07931500  1
  Ni  Ni17  1  0.49721700  0.46877600  0.42068500  1
  Cu  Cu18  1  0.18353100  0.04702100  0.67606800  1
  Cu  Cu19  1  0.90662000  0.45297900  0.82393200  1
  Cu  Cu20  1  0.81646900  0.95297900  0.32393200  1
  Cu  Cu21  1  0.09338000  0.54702100  0.17606800  1
  C  C22  1  0.60491500  0.03545100  0.76053200  1
  C  C23  1  0.40089800  0.46454900  0.73946800  1
  C  C24  1  0.39508500  0.96454900  0.23946800  1
  C  C25  1  0.59910200  0.53545100  0.26053200  1
  C  C26  1  0.79192400  0.85415200  0.96563700  1
  C  C27  1  0.61171300  0.64584800  0.53436300  1
  C  C28  1  0.20807600  0.14584800  0.03436300  1
  C  C29  1  0.38828700  0.35415200  0.46563700  1
