# generated using pymatgen
data_Cu8Ni2C
_symmetry_space_group_name_H-M   'P 1'
_cell_length_a   8.71726400
_cell_length_b   8.86744700
_cell_length_c   13.19809500
_cell_angle_alpha   90.00000000
_cell_angle_beta   90.00000000
_cell_angle_gamma   90.00000000
_symmetry_Int_Tables_number   1
_chemical_formula_structural   Cu8Ni2C
_chemical_formula_sum   'Cu64 Ni16 C8'
_cell_volume   1020.21111360
_cell_formula_units_Z   8
loop_
 _symmetry_equiv_pos_site_id
 _symmetry_equiv_pos_as_xyz
  1  'x, y, z'
loop_
 _atom_site_type_symbol
 _atom_site_label
 _atom_site_symmetry_multiplicity
 _atom_site_fract_x
 _atom_site_fract_y
 _atom_site_fract_z
 _atom_site_occupancy
  C  C0  1  0.89631400  0.85948700  0.12372900  1
  C  C1  1  0.60368600  0.85948700  0.62372900  1
  C  C2  1  0.39631400  0.64051300  0.12372900  1
  C  C3  1  0.10368600  0.64051300  0.62372900  1
  C  C4  1  0.89631400  0.35948700  0.37627100  1
  C  C5  1  0.60368600  0.35948700  0.87627100  1
  C  C6  1  0.39631400  0.14051300  0.37627100  1
  C  C7  1  0.10368600  0.14051300  0.87627100  1
  Ni  Ni8  1  0.56569300  0.92632800  0.22158300  1
  Ni  Ni9  1  0.93430700  0.92632800  0.72158300  1
  Ni  Ni10  1  0.31116400  0.84225600  0.48988300  1
  Ni  Ni11  1  0.18883600  0.84225600  0.98988300  1
  Ni  Ni12  1  0.81116400  0.65774400  0.48988300  1
  Ni  Ni13  1  0.68883600  0.65774400  0.98988300  1
  Ni  Ni14  1  0.06569300  0.57367200  0.22158300  1
  Ni  Ni15  1  0.43430700  0.57367200  0.72158300  1
  Ni  Ni16  1  0.56569300  0.42632800  0.27841700  1
  Ni  Ni17  1  0.93430700  0.42632800  0.77841700  1
  Ni  Ni18  1  0.31116400  0.34225600  0.01011700  1
  Ni  Ni19  1  0.18883600  0.34225600  0.51011700  1
  Ni  Ni20  1  0.81116400  0.15774400  0.01011700  1
  Ni  Ni21  1  0.68883600  0.15774400  0.51011700  1
  Ni  Ni22  1  0.43430700  0.07367200  0.77841700  1
  Ni  Ni23  1  0.06569300  0.07367200  0.27841700  1
  Cu  Cu24  1  0.29477000  0.00997800  0.47595800  1
  Cu  Cu25  1  0.20523000  0.00997800  0.97595800  1
  Cu  Cu26  1  0.00470300  0.97934800  0.35592700  1
  Cu  Cu27  1  0.49529700  0.97934800  0.85592700  1
  Cu  Cu28  1  0.53017800  0.97752600  0.32987900  1
  Cu  Cu29  1  0.96982200  0.97752600  0.82987900  1
  Cu  Cu30  1  0.73965300  0.91943300  0.22480100  1
  Cu  Cu31  1  0.76034700  0.91943300  0.72480100  1
  Cu  Cu32  1  0.27825900  0.81466400  0.08604200  1
  Cu  Cu33  1  0.22174100  0.81466400  0.58604200  1
  Cu  Cu34  1  0.02361900  0.80056500  0.01393300  1
  Cu  Cu35  1  0.47638100  0.80056500  0.51393300  1
  Cu  Cu36  1  0.99474900  0.76537400  0.72081200  1
  Cu  Cu37  1  0.50525100  0.76537400  0.22081200  1
  Cu  Cu38  1  0.26750700  0.75556000  0.40354800  1
  Cu  Cu39  1  0.23249300  0.75556000  0.90354800  1
  Cu  Cu40  1  0.76750700  0.74444000  0.40354800  1
  Cu  Cu41  1  0.73249300  0.74444000  0.90354800  1
  Cu  Cu42  1  0.00525100  0.73462600  0.22081200  1
  Cu  Cu43  1  0.49474900  0.73462600  0.72081200  1
  Cu  Cu44  1  0.97638100  0.69943500  0.51393300  1
  Cu  Cu45  1  0.52361900  0.69943500  0.01393300  1
  Cu  Cu46  1  0.77825900  0.68533600  0.08604200  1
  Cu  Cu47  1  0.72174100  0.68533600  0.58604200  1
  Cu  Cu48  1  0.23965300  0.58056700  0.22480100  1
  Cu  Cu49  1  0.26034700  0.58056700  0.72480100  1
  Cu  Cu50  1  0.46982200  0.52247400  0.82987900  1
  Cu  Cu51  1  0.03017800  0.52247400  0.32987900  1
  Cu  Cu52  1  0.50470300  0.52065200  0.35592700  1
  Cu  Cu53  1  0.99529700  0.52065200  0.85592700  1
  Cu  Cu54  1  0.79477000  0.49002200  0.47595800  1
  Cu  Cu55  1  0.70523000  0.49002200  0.97595800  1
  Cu  Cu56  1  0.29477000  0.50997800  0.02404200  1
  Cu  Cu57  1  0.20523000  0.50997800  0.52404200  1
  Cu  Cu58  1  0.49529700  0.47934800  0.64407300  1
  Cu  Cu59  1  0.00470300  0.47934800  0.14407300  1
  Cu  Cu60  1  0.53017800  0.47752600  0.17012100  1
  Cu  Cu61  1  0.96982200  0.47752600  0.67012100  1
  Cu  Cu62  1  0.73965300  0.41943300  0.27519900  1
  Cu  Cu63  1  0.76034700  0.41943300  0.77519900  1
  Cu  Cu64  1  0.27825900  0.31466400  0.41395800  1
  Cu  Cu65  1  0.22174100  0.31466400  0.91395800  1
  Cu  Cu66  1  0.47638100  0.30056500  0.98606700  1
  Cu  Cu67  1  0.02361900  0.30056500  0.48606700  1
  Cu  Cu68  1  0.50525100  0.26537400  0.27918800  1
  Cu  Cu69  1  0.99474900  0.26537400  0.77918800  1
  Cu  Cu70  1  0.26750700  0.25556000  0.09645200  1
  Cu  Cu71  1  0.23249300  0.25556000  0.59645200  1
  Cu  Cu72  1  0.76750700  0.24444000  0.09645200  1
  Cu  Cu73  1  0.73249300  0.24444000  0.59645200  1
  Cu  Cu74  1  0.49474900  0.23462600  0.77918800  1
  Cu  Cu75  1  0.00525100  0.23462600  0.27918800  1
  Cu  Cu76  1  0.52361900  0.19943500  0.48606700  1
  Cu  Cu77  1  0.97638100  0.19943500  0.98606700  1
  Cu  Cu78  1  0.77825900  0.18533600  0.41395800  1
  Cu  Cu79  1  0.72174100  0.18533600  0.91395800  1
  Cu  Cu80  1  0.26034700  0.08056700  0.77519900  1
  Cu  Cu81  1  0.23965300  0.08056700  0.27519900  1
  Cu  Cu82  1  0.46982200  0.02247400  0.67012100  1
  Cu  Cu83  1  0.03017800  0.02247400  0.17012100  1
  Cu  Cu84  1  0.99529700  0.02065200  0.64407300  1
  Cu  Cu85  1  0.50470300  0.02065200  0.14407300  1
  Cu  Cu86  1  0.79477000  0.99002200  0.02404200  1
  Cu  Cu87  1  0.70523000  0.99002200  0.52404200  1
