# generated using pymatgen
data_Cu2NiC2
_symmetry_space_group_name_H-M   'P 1'
_cell_length_a   6.65241620
_cell_length_b   6.65241620
_cell_length_c   5.28015382
_cell_angle_alpha   83.50499619
_cell_angle_beta   83.50499619
_cell_angle_gamma   84.74195089
_symmetry_Int_Tables_number   1
_chemical_formula_structural   Cu2NiC2
_chemical_formula_sum   'Cu8 Ni4 C8'
_cell_volume   229.94447946
_cell_formula_units_Z   4
loop_
 _symmetry_equiv_pos_site_id
 _symmetry_equiv_pos_as_xyz
  1  'x, y, z'
loop_
 _atom_site_type_symbol
 _atom_site_label
 _atom_site_symmetry_multiplicity
 _atom_site_fract_x
 _atom_site_fract_y
 _atom_site_fract_z
 _atom_site_occupancy
  C  C0  1  0.78004700  0.60276100  0.67715300  1
  C  C1  1  0.60276100  0.78004700  0.17715300  1
  C  C2  1  0.39723900  0.21995300  0.82284700  1
  C  C3  1  0.21995300  0.39723900  0.32284700  1
  C  C4  1  0.92710400  0.07289600  0.75000000  1
  C  C5  1  0.25784600  0.74215400  0.75000000  1
  C  C6  1  0.74215400  0.25784600  0.25000000  1
  C  C7  1  0.07289600  0.92710400  0.25000000  1
  Ni  Ni8  1  0.98781800  0.80400800  0.60877400  1
  Ni  Ni9  1  0.80400800  0.98781800  0.10877400  1
  Ni  Ni10  1  0.19599200  0.01218200  0.89122600  1
  Ni  Ni11  1  0.01218200  0.19599200  0.39122600  1
  Cu  Cu12  1  0.53459400  0.71256900  0.85558500  1
  Cu  Cu13  1  0.86036200  0.36004600  0.89014900  1
  Cu  Cu14  1  0.71256900  0.53459400  0.35558500  1
  Cu  Cu15  1  0.36004600  0.86036200  0.39014900  1
  Cu  Cu16  1  0.63995400  0.13963800  0.60985100  1
  Cu  Cu17  1  0.28743100  0.46540600  0.64441500  1
  Cu  Cu18  1  0.13963800  0.63995400  0.10985100  1
  Cu  Cu19  1  0.46540600  0.28743100  0.14441500  1
