# generated using pymatgen
data_Cu6NiC4
_symmetry_space_group_name_H-M   'P 1'
_cell_length_a   7.95022386
_cell_length_b   7.95022386
_cell_length_c   7.95022379
_cell_angle_alpha   90.73042548
_cell_angle_beta   90.73042548
_cell_angle_gamma   90.73042290
_symmetry_Int_Tables_number   1
_chemical_formula_structural   Cu6NiC4
_chemical_formula_sum   'Cu12 Ni2 C8'
_cell_volume   502.37876798
_cell_formula_units_Z   2
loop_
 _symmetry_equiv_pos_site_id
 _symmetry_equiv_pos_as_xyz
  1  'x, y, z'
loop_
 _atom_site_type_symbol
 _atom_site_label
 _atom_site_symmetry_multiplicity
 _atom_site_fract_x
 _atom_site_fract_y
 _atom_site_fract_z
 _atom_site_occupancy
  C  C0  1  0.75000000  0.75000000  0.75000000  1
  C  C1  1  0.25000000  0.25000000  0.25000000  1
  C  C2  1  0.86752900  0.63247100  0.25000000  1
  C  C3  1  0.25000000  0.86752900  0.63247100  1
  C  C4  1  0.63247100  0.25000000  0.86752900  1
  C  C5  1  0.75000000  0.13247100  0.36752900  1
  C  C6  1  0.36752900  0.75000000  0.13247100  1
  C  C7  1  0.13247100  0.36752900  0.75000000  1
  Ni  Ni8  1  0.50000000  0.50000000  0.50000000  1
  Ni  Ni9  1  0.00000000  0.00000000  0.00000000  1
  Cu  Cu10  1  0.81058600  0.44802200  0.56619000  1
  Cu  Cu11  1  0.56619000  0.81058600  0.44802200  1
  Cu  Cu12  1  0.44802200  0.56619000  0.81058600  1
  Cu  Cu13  1  0.06619000  0.94802200  0.31058600  1
  Cu  Cu14  1  0.31058600  0.06619000  0.94802200  1
  Cu  Cu15  1  0.94802200  0.31058600  0.06619000  1
  Cu  Cu16  1  0.18941400  0.55197800  0.43381000  1
  Cu  Cu17  1  0.43381000  0.18941400  0.55197800  1
  Cu  Cu18  1  0.55197800  0.43381000  0.18941400  1
  Cu  Cu19  1  0.93381000  0.05197800  0.68941400  1
  Cu  Cu20  1  0.68941400  0.93381000  0.05197800  1
  Cu  Cu21  1  0.05197800  0.68941400  0.93381000  1
