# generated using pymatgen
data_Cu5Ni2C
_symmetry_space_group_name_H-M   'P 1'
_cell_length_a   10.84292175
_cell_length_b   10.84292175
_cell_length_c   10.84292175
_cell_angle_alpha   60.00000000
_cell_angle_beta   60.00000431
_cell_angle_gamma   59.99999569
_symmetry_Int_Tables_number   1
_chemical_formula_structural   Cu5Ni2C
_chemical_formula_sum   'Cu20 Ni8 C4'
_cell_volume   901.41332459
_cell_formula_units_Z   4
loop_
 _symmetry_equiv_pos_site_id
 _symmetry_equiv_pos_as_xyz
  1  'x, y, z'
loop_
 _atom_site_type_symbol
 _atom_site_label
 _atom_site_symmetry_multiplicity
 _atom_site_fract_x
 _atom_site_fract_y
 _atom_site_fract_z
 _atom_site_occupancy
  C  C0  1  0.62500000  0.12500000  0.12500000  1
  C  C1  1  0.12500000  0.62500000  0.12500000  1
  C  C2  1  0.12500000  0.12500000  0.62500000  1
  C  C3  1  0.12500000  0.12500000  0.12500000  1
  Ni  Ni4  1  0.48575600  0.83808100  0.83808100  1
  Ni  Ni5  1  0.83808100  0.48575600  0.83808100  1
  Ni  Ni6  1  0.83808100  0.83808100  0.48575600  1
  Ni  Ni7  1  0.83808100  0.83808100  0.83808100  1
  Ni  Ni8  1  0.76424400  0.41191900  0.41191900  1
  Ni  Ni9  1  0.41191900  0.76424400  0.41191900  1
  Ni  Ni10  1  0.41191900  0.41191900  0.76424400  1
  Ni  Ni11  1  0.41191900  0.41191900  0.41191900  1
  Cu  Cu12  1  0.22196900  0.92601000  0.92601000  1
  Cu  Cu13  1  0.92601000  0.22196900  0.92601000  1
  Cu  Cu14  1  0.92601000  0.92601000  0.22196900  1
  Cu  Cu15  1  0.92601000  0.92601000  0.92601000  1
  Cu  Cu16  1  0.02803100  0.32399000  0.32399000  1
  Cu  Cu17  1  0.32399000  0.02803100  0.32399000  1
  Cu  Cu18  1  0.32399000  0.32399000  0.02803100  1
  Cu  Cu19  1  0.32399000  0.32399000  0.32399000  1
  Cu  Cu20  1  0.56437000  0.93563000  0.93563000  1
  Cu  Cu21  1  0.93563000  0.56437000  0.56437000  1
  Cu  Cu22  1  0.93563000  0.93563000  0.56437000  1
  Cu  Cu23  1  0.56437000  0.56437000  0.93563000  1
  Cu  Cu24  1  0.93563000  0.56437000  0.93563000  1
  Cu  Cu25  1  0.56437000  0.93563000  0.56437000  1
  Cu  Cu26  1  0.68563000  0.31437000  0.31437000  1
  Cu  Cu27  1  0.31437000  0.68563000  0.68563000  1
  Cu  Cu28  1  0.31437000  0.31437000  0.68563000  1
  Cu  Cu29  1  0.68563000  0.68563000  0.31437000  1
  Cu  Cu30  1  0.31437000  0.68563000  0.31437000  1
  Cu  Cu31  1  0.68563000  0.31437000  0.68563000  1
