# generated using pymatgen
data_CuNiC5
_symmetry_space_group_name_H-M   'P 1'
_cell_length_a   6.26393900
_cell_length_b   9.95329100
_cell_length_c   11.89801700
_cell_angle_alpha   90.00000000
_cell_angle_beta   90.00000000
_cell_angle_gamma   90.00000000
_symmetry_Int_Tables_number   1
_chemical_formula_structural   CuNiC5
_chemical_formula_sum   'Cu4 Ni4 C20'
_cell_volume   741.80337759
_cell_formula_units_Z   4
loop_
 _symmetry_equiv_pos_site_id
 _symmetry_equiv_pos_as_xyz
  1  'x, y, z'
loop_
 _atom_site_type_symbol
 _atom_site_label
 _atom_site_symmetry_multiplicity
 _atom_site_fract_x
 _atom_site_fract_y
 _atom_site_fract_z
 _atom_site_occupancy
  C  C0  1  0.25000000  0.48398900  0.66695300  1
  C  C1  1  0.75000000  0.01601100  0.16695300  1
  C  C2  1  0.25000000  0.98398900  0.83304700  1
  C  C3  1  0.75000000  0.51601100  0.33304700  1
  Ni  Ni4  1  0.25000000  0.19218400  0.45052000  1
  Ni  Ni5  1  0.75000000  0.30781600  0.95052000  1
  Ni  Ni6  1  0.25000000  0.69218400  0.04948000  1
  Ni  Ni7  1  0.75000000  0.80781600  0.54948000  1
  Cu  Cu8  1  0.25000000  0.81013100  0.45967100  1
  Cu  Cu9  1  0.75000000  0.68986900  0.95967100  1
  Cu  Cu10  1  0.25000000  0.31013100  0.04032900  1
  Cu  Cu11  1  0.75000000  0.18986900  0.54032900  1
  C  C12  1  0.25000000  0.16985400  0.60009200  1
  C  C13  1  0.75000000  0.33014600  0.10009200  1
  C  C14  1  0.25000000  0.66985400  0.89990800  1
  C  C15  1  0.75000000  0.83014600  0.39990800  1
  C  C16  1  0.25000000  0.57527100  0.40860200  1
  C  C17  1  0.75000000  0.92472900  0.90860200  1
  C  C18  1  0.25000000  0.07527100  0.09139800  1
  C  C19  1  0.75000000  0.42472900  0.59139800  1
  C  C20  1  0.99756500  0.79216300  0.62835900  1
  C  C21  1  0.00243500  0.70783700  0.12835900  1
  C  C22  1  0.50243500  0.29216300  0.87164100  1
  C  C23  1  0.49756500  0.20783700  0.37164100  1
  C  C24  1  0.00243500  0.20783700  0.37164100  1
  C  C25  1  0.99756500  0.29216300  0.87164100  1
  C  C26  1  0.49756500  0.70783700  0.12835900  1
  C  C27  1  0.50243500  0.79216300  0.62835900  1
