# generated using pymatgen
data_CuNiC4
_symmetry_space_group_name_H-M   'P 1'
_cell_length_a   5.04368800
_cell_length_b   7.78815200
_cell_length_c   8.71967700
_cell_angle_alpha   90.00000000
_cell_angle_beta   90.00000000
_cell_angle_gamma   90.00000000
_symmetry_Int_Tables_number   1
_chemical_formula_structural   CuNiC4
_chemical_formula_sum   'Cu4 Ni4 C16'
_cell_volume   342.51770884
_cell_formula_units_Z   4
loop_
 _symmetry_equiv_pos_site_id
 _symmetry_equiv_pos_as_xyz
  1  'x, y, z'
loop_
 _atom_site_type_symbol
 _atom_site_label
 _atom_site_symmetry_multiplicity
 _atom_site_fract_x
 _atom_site_fract_y
 _atom_site_fract_z
 _atom_site_occupancy
  Ni  Ni0  1  0.25000000  0.67922800  0.72383300  1
  Ni  Ni1  1  0.75000000  0.32077200  0.27616700  1
  Ni  Ni2  1  0.75000000  0.17922800  0.77616700  1
  Ni  Ni3  1  0.25000000  0.82077200  0.22383300  1
  Cu  Cu4  1  0.25000000  0.30962800  0.59726400  1
  Cu  Cu5  1  0.75000000  0.69037200  0.40273600  1
  Cu  Cu6  1  0.75000000  0.80962800  0.90273600  1
  Cu  Cu7  1  0.25000000  0.19037200  0.09726400  1
  C  C8  1  0.25000000  0.38593600  0.44001700  1
  C  C9  1  0.75000000  0.61406400  0.55998300  1
  C  C10  1  0.75000000  0.88593600  0.05998300  1
  C  C11  1  0.25000000  0.11406400  0.94001700  1
  C  C12  1  0.25000000  0.44336200  0.73510600  1
  C  C13  1  0.75000000  0.55663800  0.26489400  1
  C  C14  1  0.75000000  0.94336200  0.76489400  1
  C  C15  1  0.25000000  0.05663800  0.23510600  1
  C  C16  1  0.00232800  0.30976600  0.12309500  1
  C  C17  1  0.50232800  0.69023400  0.87690500  1
  C  C18  1  0.99767200  0.80976600  0.37690500  1
  C  C19  1  0.49767200  0.19023400  0.62309500  1
  C  C20  1  0.99767200  0.69023400  0.87690500  1
  C  C21  1  0.49767200  0.30976600  0.12309500  1
  C  C22  1  0.00232800  0.19023400  0.62309500  1
  C  C23  1  0.50232800  0.80976600  0.37690500  1
