# generated using pymatgen
data_Cu19NiC10
_symmetry_space_group_name_H-M   'P 1'
_cell_length_a   17.32032504
_cell_length_b   17.32032504
_cell_length_c   3.28715000
_cell_angle_alpha   90.00000000
_cell_angle_beta   90.00000000
_cell_angle_gamma   157.28056171
_symmetry_Int_Tables_number   1
_chemical_formula_structural   Cu19NiC10
_chemical_formula_sum   'Cu19 Ni1 C10'
_cell_volume   380.85988829
_cell_formula_units_Z   1
loop_
 _symmetry_equiv_pos_site_id
 _symmetry_equiv_pos_as_xyz
  1  'x, y, z'
loop_
 _atom_site_type_symbol
 _atom_site_label
 _atom_site_symmetry_multiplicity
 _atom_site_fract_x
 _atom_site_fract_y
 _atom_site_fract_z
 _atom_site_occupancy
  C  C0  1  0.00034800  0.99965200  0.00000000  1
  C  C1  1  0.49801800  0.50198200  0.50000000  1
  C  C2  1  0.59884900  0.40115100  0.00000000  1
  C  C3  1  0.10008900  0.89991100  0.50000000  1
  C  C4  1  0.69955400  0.30044600  0.50000000  1
  C  C5  1  0.20012700  0.79987300  0.00000000  1
  C  C6  1  0.79955900  0.20044100  0.00000000  1
  C  C7  1  0.89979700  0.10020300  0.50000000  1
  C  C8  1  0.30067100  0.69932900  0.50000000  1
  C  C9  1  0.40681100  0.59318900  0.00000000  1
  Ni  Ni10  1  0.43734200  0.56265800  0.50000000  1
  Cu  Cu11  1  0.70117100  0.70072300  0.00000000  1
  Cu  Cu12  1  0.29927700  0.29882900  0.00000000  1
  Cu  Cu13  1  0.90044500  0.69986100  0.00000000  1
  Cu  Cu14  1  0.55894900  0.44105100  0.50000000  1
  Cu  Cu15  1  0.04001400  0.95998600  0.50000000  1
  Cu  Cu16  1  0.63978900  0.36021100  0.50000000  1
  Cu  Cu17  1  0.30013900  0.09955500  0.00000000  1
  Cu  Cu18  1  0.90029600  0.49966000  0.00000000  1
  Cu  Cu19  1  0.50034000  0.09970400  0.00000000  1
  Cu  Cu20  1  0.16031000  0.83969000  0.50000000  1
  Cu  Cu21  1  0.75983200  0.24016800  0.50000000  1
  Cu  Cu22  1  0.24043900  0.75956100  0.50000000  1
  Cu  Cu23  1  0.83992800  0.16007200  0.50000000  1
  Cu  Cu24  1  0.50004300  0.89962400  0.00000000  1
  Cu  Cu25  1  0.10037600  0.49995700  0.00000000  1
  Cu  Cu26  1  0.69285000  0.89647800  0.00000000  1
  Cu  Cu27  1  0.36178100  0.63821900  0.50000000  1
  Cu  Cu28  1  0.95934700  0.04065300  0.50000000  1
  Cu  Cu29  1  0.10352200  0.30715000  0.00000000  1
