# generated using pymatgen
data_Cu9Ni3C4
_symmetry_space_group_name_H-M   'P 1'
_cell_length_a   8.81137027
_cell_length_b   8.81137027
_cell_length_c   8.81137027
_cell_angle_alpha   109.47122063
_cell_angle_beta   109.47122063
_cell_angle_gamma   109.47122063
_symmetry_Int_Tables_number   1
_chemical_formula_structural   Cu9Ni3C4
_chemical_formula_sum   'Cu18 Ni6 C8'
_cell_volume   526.63347885
_cell_formula_units_Z   2
loop_
 _symmetry_equiv_pos_site_id
 _symmetry_equiv_pos_as_xyz
  1  'x, y, z'
loop_
 _atom_site_type_symbol
 _atom_site_label
 _atom_site_symmetry_multiplicity
 _atom_site_fract_x
 _atom_site_fract_y
 _atom_site_fract_z
 _atom_site_occupancy
  C  C0  1  0.88365700  0.88365700  0.88365700  1
  C  C1  1  0.50000000  0.00000000  0.61634300  1
  C  C2  1  0.61634300  0.50000000  0.00000000  1
  C  C3  1  0.00000000  0.61634300  0.50000000  1
  C  C4  1  0.40644600  0.40644600  0.40644600  1
  C  C5  1  0.50000000  0.00000000  0.09355400  1
  C  C6  1  0.09355400  0.50000000  0.00000000  1
  C  C7  1  0.00000000  0.09355400  0.50000000  1
  Ni  Ni8  1  0.58998200  0.75000000  0.33998200  1
  Ni  Ni9  1  0.91001800  0.25000000  0.16001800  1
  Ni  Ni10  1  0.33998200  0.58998200  0.75000000  1
  Ni  Ni11  1  0.75000000  0.33998200  0.58998200  1
  Ni  Ni12  1  0.25000000  0.16001800  0.91001800  1
  Ni  Ni13  1  0.16001800  0.91001800  0.25000000  1
  Cu  Cu14  1  0.41586700  0.64441400  0.28277400  1
  Cu  Cu15  1  0.86164000  0.13309300  0.21722600  1
  Cu  Cu16  1  0.08413300  0.36690700  0.22854700  1
  Cu  Cu17  1  0.63836000  0.85558600  0.27145300  1
  Cu  Cu18  1  0.28277400  0.41586700  0.64441400  1
  Cu  Cu19  1  0.64441400  0.28277400  0.41586700  1
  Cu  Cu20  1  0.27145300  0.63836000  0.85558600  1
  Cu  Cu21  1  0.13309300  0.21722600  0.86164000  1
  Cu  Cu22  1  0.21722600  0.86164000  0.13309300  1
  Cu  Cu23  1  0.36690700  0.22854700  0.08413300  1
  Cu  Cu24  1  0.22854700  0.08413300  0.36690700  1
  Cu  Cu25  1  0.85558600  0.27145300  0.63836000  1
  Cu  Cu26  1  0.71827900  0.75000000  0.46827900  1
  Cu  Cu27  1  0.78172100  0.25000000  0.03172100  1
  Cu  Cu28  1  0.46827900  0.71827900  0.75000000  1
  Cu  Cu29  1  0.75000000  0.46827900  0.71827900  1
  Cu  Cu30  1  0.25000000  0.03172100  0.78172100  1
  Cu  Cu31  1  0.03172100  0.78172100  0.25000000  1
