# generated using pymatgen
data_Cu3NiC2
_symmetry_space_group_name_H-M   'P 1'
_cell_length_a   4.24610200
_cell_length_b   9.27419800
_cell_length_c   11.07239719
_cell_angle_alpha   67.35448750
_cell_angle_beta   90.00000000
_cell_angle_gamma   90.00000000
_symmetry_Int_Tables_number   1
_chemical_formula_structural   Cu3NiC2
_chemical_formula_sum   'Cu6 Ni2 C4'
_cell_volume   402.40677417
_cell_formula_units_Z   2
loop_
 _symmetry_equiv_pos_site_id
 _symmetry_equiv_pos_as_xyz
  1  'x, y, z'
loop_
 _atom_site_type_symbol
 _atom_site_label
 _atom_site_symmetry_multiplicity
 _atom_site_fract_x
 _atom_site_fract_y
 _atom_site_fract_z
 _atom_site_occupancy
  C  C0  1  0.75000000  0.74786900  0.28232700  1
  C  C1  1  0.25000000  0.25213100  0.71767300  1
  C  C2  1  0.25000000  0.69353300  0.83225800  1
  C  C3  1  0.75000000  0.30646700  0.16774200  1
  Ni  Ni4  1  0.25000000  0.07542100  0.39862700  1
  Ni  Ni5  1  0.75000000  0.92457900  0.60137300  1
  Cu  Cu6  1  0.25000000  0.73880000  0.56417000  1
  Cu  Cu7  1  0.75000000  0.89438700  0.86224100  1
  Cu  Cu8  1  0.75000000  0.45639700  0.87508000  1
  Cu  Cu9  1  0.75000000  0.26120000  0.43583000  1
  Cu  Cu10  1  0.25000000  0.54360300  0.12492000  1
  Cu  Cu11  1  0.25000000  0.10561300  0.13775900  1
