# generated using pymatgen
data_Cu2Ni4C
_symmetry_space_group_name_H-M   'P 1'
_cell_length_a   10.76191640
_cell_length_b   10.76191640
_cell_length_c   10.76191640
_cell_angle_alpha   92.92043330
_cell_angle_beta   92.92043330
_cell_angle_gamma   153.90966607
_symmetry_Int_Tables_number   1
_chemical_formula_structural   Cu2Ni4C
_chemical_formula_sum   'Cu16 Ni32 C8'
_cell_volume   534.01890774
_cell_formula_units_Z   8
loop_
 _symmetry_equiv_pos_site_id
 _symmetry_equiv_pos_as_xyz
  1  'x, y, z'
loop_
 _atom_site_type_symbol
 _atom_site_label
 _atom_site_symmetry_multiplicity
 _atom_site_fract_x
 _atom_site_fract_y
 _atom_site_fract_z
 _atom_site_occupancy
  Ni  Ni0  1  0.51825300  0.56843500  0.17469500  1
  Ni  Ni1  1  0.39374000  0.34355800  0.82530500  1
  Ni  Ni2  1  0.81843500  0.14374000  0.55018200  1
  Ni  Ni3  1  0.59355800  0.26825300  0.44981800  1
  Ni  Ni4  1  0.73174700  0.18156500  0.32530500  1
  Ni  Ni5  1  0.85626000  0.40644200  0.67469500  1
  Ni  Ni6  1  0.43156500  0.60626000  0.94981800  1
  Ni  Ni7  1  0.65644200  0.48174700  0.05018200  1
  Ni  Ni8  1  0.19608400  0.35024600  0.20181300  1
  Ni  Ni9  1  0.14843300  0.99427000  0.79818700  1
  Ni  Ni10  1  0.60024600  0.89843300  0.65416300  1
  Ni  Ni11  1  0.24427000  0.94608400  0.34583700  1
  Ni  Ni12  1  0.05391600  0.39975400  0.29818700  1
  Ni  Ni13  1  0.10156700  0.75573000  0.70181300  1
  Ni  Ni14  1  0.64975400  0.85156700  0.84583700  1
  Ni  Ni15  1  0.00573000  0.80391600  0.15416300  1
  Ni  Ni16  1  0.27272400  0.36029200  0.41609000  1
  Ni  Ni17  1  0.94420300  0.85663400  0.58391000  1
  Ni  Ni18  1  0.61029200  0.69420300  0.58756800  1
  Ni  Ni19  1  0.10663400  0.02272400  0.41243200  1
  Ni  Ni20  1  0.97727600  0.38970800  0.08391000  1
  Ni  Ni21  1  0.30579700  0.89336600  0.91609000  1
  Ni  Ni22  1  0.63970800  0.05579700  0.91243200  1
  Ni  Ni23  1  0.14336600  0.72727600  0.08756800  1
  Ni  Ni24  1  0.21376300  0.20146600  0.18595400  1
  Ni  Ni25  1  0.01551100  0.02780900  0.81404600  1
  Ni  Ni26  1  0.45146600  0.76551100  0.48770200  1
  Ni  Ni27  1  0.27780900  0.96376300  0.51229800  1
  Ni  Ni28  1  0.03623700  0.54853400  0.31404600  1
  Ni  Ni29  1  0.23448900  0.72219100  0.68595400  1
  Ni  Ni30  1  0.79853400  0.98448900  0.01229800  1
  Ni  Ni31  1  0.97219100  0.78623700  0.98770200  1
  Cu  Cu32  1  0.44587000  0.48891400  0.36706900  1
  Cu  Cu33  1  0.12184500  0.07880100  0.63293100  1
  Cu  Cu34  1  0.73891400  0.87184500  0.54304400  1
  Cu  Cu35  1  0.32880100  0.19587000  0.45695600  1
  Cu  Cu36  1  0.80413000  0.26108600  0.13293100  1
  Cu  Cu37  1  0.12815500  0.67119900  0.86706900  1
  Cu  Cu38  1  0.51108600  0.87815500  0.95695600  1
  Cu  Cu39  1  0.92119900  0.55413000  0.04304400  1
  Cu  Cu40  1  0.33928800  0.39883000  0.22344700  1
  Cu  Cu41  1  0.17538300  0.11584100  0.77655300  1
  Cu  Cu42  1  0.64883000  0.92538300  0.55954100  1
  Cu  Cu43  1  0.36584100  0.08928800  0.44045900  1
  Cu  Cu44  1  0.91071200  0.35117000  0.27655300  1
  Cu  Cu45  1  0.07461700  0.63415900  0.72344700  1
  Cu  Cu46  1  0.60117000  0.82461700  0.94045900  1
  Cu  Cu47  1  0.88415900  0.66071200  0.05954100  1
  C  C48  1  0.68817500  0.78718800  0.40840600  1
  C  C49  1  0.37878200  0.27977000  0.59159400  1
  C  C50  1  0.03718800  0.12878200  0.59901300  1
  C  C51  1  0.52977000  0.43817500  0.40098700  1
  C  C52  1  0.56182500  0.96281200  0.09159400  1
  C  C53  1  0.87121800  0.47023000  0.90840600  1
  C  C54  1  0.21281200  0.62121800  0.90098700  1
  C  C55  1  0.72023000  0.31182500  0.09901300  1
