# generated using pymatgen
data_Cu2NiC5
_symmetry_space_group_name_H-M   'P 1'
_cell_length_a   5.15839600
_cell_length_b   5.34904600
_cell_length_c   7.02748300
_cell_angle_alpha   90.00000000
_cell_angle_beta   90.00000000
_cell_angle_gamma   90.00000000
_symmetry_Int_Tables_number   1
_chemical_formula_structural   Cu2NiC5
_chemical_formula_sum   'Cu4 Ni2 C10'
_cell_volume   193.90580704
_cell_formula_units_Z   2
loop_
 _symmetry_equiv_pos_site_id
 _symmetry_equiv_pos_as_xyz
  1  'x, y, z'
loop_
 _atom_site_type_symbol
 _atom_site_label
 _atom_site_symmetry_multiplicity
 _atom_site_fract_x
 _atom_site_fract_y
 _atom_site_fract_z
 _atom_site_occupancy
  Ni  Ni0  1  0.52047900  0.80089700  0.00000000  1
  Ni  Ni1  1  0.02047900  0.19910300  0.50000000  1
  Cu  Cu2  1  0.50734800  0.32312900  0.25058800  1
  Cu  Cu3  1  0.00734800  0.67687100  0.75058800  1
  Cu  Cu4  1  0.50734800  0.32312900  0.74941200  1
  Cu  Cu5  1  0.00734800  0.67687100  0.24941200  1
  C  C6  1  0.49912800  0.81051400  0.50000000  1
  C  C7  1  0.99912800  0.18948600  0.00000000  1
  C  C8  1  0.06526100  0.87178500  0.00000000  1
  C  C9  1  0.66608500  0.22740300  0.00000000  1
  C  C10  1  0.56526100  0.12821500  0.50000000  1
  C  C11  1  0.16608500  0.77259700  0.50000000  1
  C  C12  1  0.12722600  0.32896200  0.19981100  1
  C  C13  1  0.62722600  0.67103800  0.30018900  1
  C  C14  1  0.62722600  0.67103800  0.69981100  1
  C  C15  1  0.12722600  0.32896200  0.80018900  1
