# generated using pymatgen
data_CuNiC6
_symmetry_space_group_name_H-M   'P 1'
_cell_length_a   5.45388950
_cell_length_b   5.45388950
_cell_length_c   5.45388920
_cell_angle_alpha   56.53296952
_cell_angle_beta   56.53296952
_cell_angle_gamma   56.53296212
_symmetry_Int_Tables_number   1
_chemical_formula_structural   CuNiC6
_chemical_formula_sum   'Cu1 Ni1 C6'
_cell_volume   105.51974928
_cell_formula_units_Z   1
loop_
 _symmetry_equiv_pos_site_id
 _symmetry_equiv_pos_as_xyz
  1  'x, y, z'
loop_
 _atom_site_type_symbol
 _atom_site_label
 _atom_site_symmetry_multiplicity
 _atom_site_fract_x
 _atom_site_fract_y
 _atom_site_fract_z
 _atom_site_occupancy
  Ni  Ni0  1  0.50000000  0.50000000  0.50000000  1
  Cu  Cu1  1  0.00000000  0.00000000  0.00000000  1
  C  C2  1  0.12311000  0.36739900  0.75705300  1
  C  C3  1  0.75705300  0.12311000  0.36739900  1
  C  C4  1  0.63260100  0.24294700  0.87689000  1
  C  C5  1  0.24294700  0.87689000  0.63260100  1
  C  C6  1  0.87689000  0.63260100  0.24294700  1
  C  C7  1  0.36739900  0.75705300  0.12311000  1
