# generated using pymatgen
data_Cu3Ni
_symmetry_space_group_name_H-M   'P 1'
_cell_length_a   17.62073051
_cell_length_b   17.62073051
_cell_length_c   17.62073051
_cell_angle_alpha   159.40038104
_cell_angle_beta   159.40038104
_cell_angle_gamma   29.29362112
_symmetry_Int_Tables_number   1
_chemical_formula_structural   Cu3Ni
_chemical_formula_sum   'Cu24 Ni8'
_cell_volume   676.88344832
_cell_formula_units_Z   8
loop_
 _symmetry_equiv_pos_site_id
 _symmetry_equiv_pos_as_xyz
  1  'x, y, z'
loop_
 _atom_site_type_symbol
 _atom_site_label
 _atom_site_symmetry_multiplicity
 _atom_site_fract_x
 _atom_site_fract_y
 _atom_site_fract_z
 _atom_site_occupancy
  Ni  Ni0  1  0.46015100  0.46015100  0.00000000  1
  Ni  Ni1  1  0.78984900  0.28984900  0.50000000  1
  Ni  Ni2  1  0.03984900  0.03984900  0.00000000  1
  Ni  Ni3  1  0.21015100  0.71015100  0.50000000  1
  Ni  Ni4  1  0.28984900  0.78984900  0.50000000  1
  Ni  Ni5  1  0.96015100  0.96015100  0.00000000  1
  Ni  Ni6  1  0.71015100  0.21015100  0.50000000  1
  Ni  Ni7  1  0.53984900  0.53984900  0.00000000  1
  Cu  Cu8  1  0.41458600  0.41458600  0.32917300  1
  Cu  Cu9  1  0.08541400  0.08541400  0.67082700  1
  Cu  Cu10  1  0.83541400  0.66458600  0.50000000  1
  Cu  Cu11  1  0.16458600  0.33541400  0.50000000  1
  Cu  Cu12  1  0.33541400  0.83541400  0.17082700  1
  Cu  Cu13  1  0.66458600  0.16458600  0.82917300  1
  Cu  Cu14  1  0.91458600  0.58541400  0.00000000  1
  Cu  Cu15  1  0.58541400  0.91458600  0.00000000  1
  Cu  Cu16  1  0.98518100  0.34756300  0.99803500  1
  Cu  Cu17  1  0.34952800  0.98714500  0.00196500  1
  Cu  Cu18  1  0.26481900  0.76285500  0.86238200  1
  Cu  Cu19  1  0.90047200  0.40243700  0.13761800  1
  Cu  Cu20  1  0.15243700  0.51481900  0.00196500  1
  Cu  Cu21  1  0.51285500  0.15047200  0.99803500  1
  Cu  Cu22  1  0.73714500  0.23518100  0.13761800  1
  Cu  Cu23  1  0.09756300  0.59952800  0.86238200  1
  Cu  Cu24  1  0.76481900  0.90243700  0.50196500  1
  Cu  Cu25  1  0.40047200  0.26285500  0.49803500  1
  Cu  Cu26  1  0.48518100  0.48714500  0.63761800  1
  Cu  Cu27  1  0.84952800  0.84756300  0.36238200  1
  Cu  Cu28  1  0.59756300  0.73518100  0.49803500  1
  Cu  Cu29  1  0.23714500  0.09952800  0.50196500  1
  Cu  Cu30  1  0.01285500  0.01481900  0.36238200  1
  Cu  Cu31  1  0.65243700  0.65047200  0.63761800  1
