# generated using pymatgen
data_Cu2NiC3
_symmetry_space_group_name_H-M   'P 1'
_cell_length_a   7.00097558
_cell_length_b   7.00097558
_cell_length_c   9.91498589
_cell_angle_alpha   75.98825453
_cell_angle_beta   75.98825453
_cell_angle_gamma   89.18465940
_symmetry_Int_Tables_number   1
_chemical_formula_structural   Cu2NiC3
_chemical_formula_sum   'Cu4 Ni2 C6'
_cell_volume   456.97203359
_cell_formula_units_Z   2
loop_
 _symmetry_equiv_pos_site_id
 _symmetry_equiv_pos_as_xyz
  1  'x, y, z'
loop_
 _atom_site_type_symbol
 _atom_site_label
 _atom_site_symmetry_multiplicity
 _atom_site_fract_x
 _atom_site_fract_y
 _atom_site_fract_z
 _atom_site_occupancy
  C  C0  1  0.34217800  0.65782200  0.25000000  1
  C  C1  1  0.65782200  0.34217800  0.75000000  1
  C  C2  1  0.15295200  0.25644600  0.02134500  1
  C  C3  1  0.74355400  0.84704800  0.47865500  1
  C  C4  1  0.84704800  0.74355400  0.97865500  1
  C  C5  1  0.25644600  0.15295200  0.52134500  1
  Ni  Ni6  1  0.71255900  0.28744100  0.25000000  1
  Ni  Ni7  1  0.28744100  0.71255900  0.75000000  1
  Cu  Cu8  1  0.83355700  0.40269200  0.35034900  1
  Cu  Cu9  1  0.59730800  0.16644300  0.14965100  1
  Cu  Cu10  1  0.40269200  0.83355700  0.85034900  1
  Cu  Cu11  1  0.16644300  0.59730800  0.64965100  1
