# generated using pymatgen
data_Cu3NiC7
_symmetry_space_group_name_H-M   'P 1'
_cell_length_a   5.75287800
_cell_length_b   6.72265903
_cell_length_c   4.96423236
_cell_angle_alpha   92.27849534
_cell_angle_beta   92.94731211
_cell_angle_gamma   107.66580515
_symmetry_Int_Tables_number   1
_chemical_formula_structural   Cu3NiC7
_chemical_formula_sum   'Cu6 Ni2 C14'
_cell_volume   182.38476049
_cell_formula_units_Z   2
loop_
 _symmetry_equiv_pos_site_id
 _symmetry_equiv_pos_as_xyz
  1  'x, y, z'
loop_
 _atom_site_type_symbol
 _atom_site_label
 _atom_site_symmetry_multiplicity
 _atom_site_fract_x
 _atom_site_fract_y
 _atom_site_fract_z
 _atom_site_occupancy
  C  C0  1  0.50000000  0.00000000  0.00000000  1
  C  C1  1  0.00000000  0.00000000  0.00000000  1
  C  C2  1  0.75094100  0.38904200  0.98147300  1
  C  C3  1  0.24905900  0.61095800  0.01852700  1
  C  C4  1  0.87213900  0.77304300  0.33350200  1
  C  C5  1  0.12786100  0.22695700  0.66649800  1
  C  C6  1  0.94567500  0.58981500  0.70291600  1
  C  C7  1  0.05432500  0.41018500  0.29708400  1
  C  C8  1  0.65039900  0.15483000  0.45100500  1
  C  C9  1  0.34960100  0.84517000  0.54899500  1
  C  C10  1  0.62416000  0.42354600  0.29468900  1
  C  C11  1  0.37584000  0.57645400  0.70531100  1
  C  C12  1  0.41302000  0.26515200  0.33403800  1
  C  C13  1  0.58698000  0.73484800  0.66596200  1
  Ni  Ni14  1  0.44542400  0.76144200  0.69774700  1
  Ni  Ni15  1  0.55457600  0.23855800  0.30225300  1
  Cu  Cu16  1  0.71854200  0.20783900  0.89389700  1
  Cu  Cu17  1  0.28145800  0.79216100  0.10610300  1
  Cu  Cu18  1  0.14833700  0.28245400  0.84003800  1
  Cu  Cu19  1  0.85166300  0.71754600  0.15996200  1
  Cu  Cu20  1  0.88627800  0.76581800  0.67108300  1
  Cu  Cu21  1  0.11372200  0.23418200  0.32891700  1
