# generated using pymatgen
data_Cu(NiC2)6
_symmetry_space_group_name_H-M   'P 1'
_cell_length_a   5.58001600
_cell_length_b   7.89133500
_cell_length_c   7.89133425
_cell_angle_alpha   119.99999896
_cell_angle_beta   90.00000000
_cell_angle_gamma   90.00000000
_symmetry_Int_Tables_number   1
_chemical_formula_structural   Cu(NiC2)6
_chemical_formula_sum   'Cu1 Ni6 C12'
_cell_volume   300.93104943
_cell_formula_units_Z   1
loop_
 _symmetry_equiv_pos_site_id
 _symmetry_equiv_pos_as_xyz
  1  'x, y, z'
loop_
 _atom_site_type_symbol
 _atom_site_label
 _atom_site_symmetry_multiplicity
 _atom_site_fract_x
 _atom_site_fract_y
 _atom_site_fract_z
 _atom_site_occupancy
  Ni  Ni0  1  0.39689500  0.81699500  0.13976900  1
  Ni  Ni1  1  0.86023100  0.71966900  0.32277400  1
  Ni  Ni2  1  0.67722600  0.46333600  0.60310500  1
  Ni  Ni3  1  0.60310500  0.18300500  0.86023100  1
  Ni  Ni4  1  0.13976900  0.28033100  0.67722600  1
  Ni  Ni5  1  0.32277400  0.53666400  0.39689500  1
  Cu  Cu6  1  0.00000000  0.00000000  0.00000000  1
  C  C7  1  0.17598200  0.82005000  0.40596800  1
  C  C8  1  0.59403200  0.76190000  0.58591900  1
  C  C9  1  0.41408100  0.41805000  0.82401800  1
  C  C10  1  0.82401800  0.17995000  0.59403200  1
  C  C11  1  0.40596800  0.23810000  0.41408100  1
  C  C12  1  0.58591900  0.58195000  0.17598200  1
  C  C13  1  0.70827600  0.85173300  0.95492500  1
  C  C14  1  0.10319200  0.66320100  0.70827600  1
  C  C15  1  0.95492500  0.18853100  0.89680800  1
  C  C16  1  0.29172400  0.14826700  0.04507500  1
  C  C17  1  0.89680800  0.33679900  0.29172400  1
  C  C18  1  0.04507500  0.81146900  0.10319200  1
