# generated using pymatgen
data_Cu2Ni3C19
_symmetry_space_group_name_H-M   'P 1'
_cell_length_a   11.31061927
_cell_length_b   11.31061927
_cell_length_c   11.31061927
_cell_angle_alpha   108.37749580
_cell_angle_beta   108.37749580
_cell_angle_gamma   111.68153854
_symmetry_Int_Tables_number   1
_chemical_formula_structural   Cu2Ni3C19
_chemical_formula_sum   'Cu8 Ni12 C76'
_cell_volume   1112.62847653
_cell_formula_units_Z   4
loop_
 _symmetry_equiv_pos_site_id
 _symmetry_equiv_pos_as_xyz
  1  'x, y, z'
loop_
 _atom_site_type_symbol
 _atom_site_label
 _atom_site_symmetry_multiplicity
 _atom_site_fract_x
 _atom_site_fract_y
 _atom_site_fract_z
 _atom_site_occupancy
  C  C0  1  0.50000000  0.50000000  0.00000000  1
  C  C1  1  0.00000000  0.00000000  0.00000000  1
  C  C2  1  0.25000000  0.75000000  0.50000000  1
  C  C3  1  0.75000000  0.25000000  0.50000000  1
  C  C4  1  0.93121100  0.93121100  0.36242200  1
  C  C5  1  0.06878900  0.43121100  0.00000000  1
  C  C6  1  0.68121100  0.18121100  0.86242200  1
  C  C7  1  0.81878900  0.68121100  0.50000000  1
  C  C8  1  0.31878900  0.81878900  0.13757800  1
  C  C9  1  0.18121100  0.31878900  0.50000000  1
  C  C10  1  0.56878900  0.56878900  0.63757800  1
  C  C11  1  0.43121100  0.06878900  0.00000000  1
  C  C12  1  0.90667800  0.14965900  0.91805000  1
  C  C13  1  0.73160900  0.64965900  0.24298200  1
  C  C14  1  0.89965900  0.15667800  0.41805000  1
  C  C15  1  0.23862800  0.65667800  0.25701800  1
  C  C16  1  0.34332200  0.60034100  0.58195000  1
  C  C17  1  0.51839100  0.10034100  0.25701800  1
  C  C18  1  0.35034100  0.59332200  0.08195000  1
  C  C19  1  0.01137200  0.09332200  0.24298200  1
  C  C20  1  0.40667800  0.48862800  0.75701800  1
  C  C21  1  0.23160900  0.98862800  0.08195000  1
  C  C22  1  0.39965900  0.98160900  0.74298200  1
  C  C23  1  0.73862800  0.48160900  0.58195000  1
  C  C24  1  0.84332200  0.26137200  0.74298200  1
  C  C25  1  0.01839100  0.76137200  0.41805000  1
  C  C26  1  0.85034100  0.76839100  0.75701800  1
  C  C27  1  0.51137200  0.26839100  0.91805000  1
  Ni  Ni28  1  0.75000000  0.75000000  0.00000000  1
  Ni  Ni29  1  0.25000000  0.25000000  0.00000000  1
  Ni  Ni30  1  0.50000000  0.00000000  0.50000000  1
  Ni  Ni31  1  0.00000000  0.50000000  0.50000000  1
  Ni  Ni32  1  0.37500000  0.75237000  0.87737000  1
  Ni  Ni33  1  0.37500000  0.25237000  0.37737000  1
  Ni  Ni34  1  0.50237000  0.62500000  0.37737000  1
  Ni  Ni35  1  0.74763000  0.12500000  0.12263000  1
  Ni  Ni36  1  0.87500000  0.99763000  0.62263000  1
  Ni  Ni37  1  0.87500000  0.49763000  0.12263000  1
  Ni  Ni38  1  0.00237000  0.62500000  0.87737000  1
  Ni  Ni39  1  0.24763000  0.12500000  0.62263000  1
  Cu  Cu40  1  0.62500000  0.87500000  0.75000000  1
  Cu  Cu41  1  0.62500000  0.37500000  0.25000000  1
  Cu  Cu42  1  0.62500000  0.87500000  0.25000000  1
  Cu  Cu43  1  0.12500000  0.37500000  0.25000000  1
  Cu  Cu44  1  0.12500000  0.37500000  0.75000000  1
  Cu  Cu45  1  0.12500000  0.87500000  0.25000000  1
  Cu  Cu46  1  0.12500000  0.87500000  0.75000000  1
  Cu  Cu47  1  0.62500000  0.37500000  0.75000000  1
  C  C48  1  0.52677900  0.68668000  0.77086700  1
  C  C49  1  0.41581300  0.18668000  0.15990100  1
  C  C50  1  0.43668000  0.77677900  0.27086700  1
  C  C51  1  0.00591200  0.27677900  0.34009900  1
  C  C52  1  0.72322100  0.06332000  0.72913300  1
  C  C53  1  0.83418700  0.56332000  0.34009900  1
  C  C54  1  0.81332000  0.97322100  0.22913300  1
  C  C55  1  0.24408800  0.47322100  0.15990100  1
  C  C56  1  0.02677900  0.25591200  0.84009900  1
  C  C57  1  0.91581300  0.75591200  0.22913300  1
  C  C58  1  0.93668000  0.66581300  0.65990100  1
  C  C59  1  0.50591200  0.16581300  0.72913300  1
  C  C60  1  0.22322100  0.49408800  0.65990100  1
  C  C61  1  0.33418700  0.99408800  0.27086700  1
  C  C62  1  0.31332000  0.08418700  0.84009900  1
  C  C63  1  0.74408800  0.58418700  0.77086700  1
  C  C64  1  0.94311000  0.39563000  0.65740600  1
  C  C65  1  0.23822400  0.89563000  0.45252000  1
  C  C66  1  0.14563000  0.19311000  0.15740600  1
  C  C67  1  0.53570400  0.69311000  0.04748000  1
  C  C68  1  0.30689000  0.35437000  0.84259400  1
  C  C69  1  0.01177600  0.85437000  0.04748000  1
  C  C70  1  0.10437000  0.55689000  0.34259400  1
  C  C71  1  0.71429600  0.05689000  0.45252000  1
  C  C72  1  0.44311000  0.78570400  0.54748000  1
  C  C73  1  0.73822400  0.28570400  0.34259400  1
  C  C74  1  0.64563000  0.48822400  0.95252000  1
  C  C75  1  0.03570400  0.98822400  0.84259400  1
  C  C76  1  0.80689000  0.96429600  0.95252000  1
  C  C77  1  0.51177600  0.46429600  0.15740600  1
  C  C78  1  0.60437000  0.26177600  0.54748000  1
  C  C79  1  0.21429600  0.76177600  0.65740600  1
  C  C80  1  0.20553700  0.57958700  0.92759600  1
  C  C81  1  0.15199100  0.07958700  0.37405000  1
  C  C82  1  0.32958700  0.45553700  0.42759600  1
  C  C83  1  0.52794100  0.95553700  0.12595000  1
  C  C84  1  0.04446300  0.17041300  0.57240400  1
  C  C85  1  0.09800900  0.67041300  0.12595000  1
  C  C86  1  0.92041300  0.29446300  0.07240400  1
  C  C87  1  0.72205900  0.79446300  0.37405000  1
  C  C88  1  0.70553700  0.77794100  0.62595000  1
  C  C89  1  0.65199100  0.27794100  0.07240400  1
  C  C90  1  0.82958700  0.40199100  0.87405000  1
  C  C91  1  0.02794100  0.90199100  0.57240400  1
  C  C92  1  0.54446300  0.97205900  0.87405000  1
  C  C93  1  0.59800900  0.47205900  0.42759600  1
  C  C94  1  0.42041300  0.34800900  0.62595000  1
  C  C95  1  0.22205900  0.84800900  0.92759600  1
