# generated using pymatgen
data_CuNi4C3
_symmetry_space_group_name_H-M   'P 1'
_cell_length_a   6.38148400
_cell_length_b   10.59502500
_cell_length_c   12.91522400
_cell_angle_alpha   90.00000000
_cell_angle_beta   90.00000000
_cell_angle_gamma   90.00000000
_symmetry_Int_Tables_number   1
_chemical_formula_structural   CuNi4C3
_chemical_formula_sum   'Cu8 Ni32 C24'
_cell_volume   873.22389929
_cell_formula_units_Z   8
loop_
 _symmetry_equiv_pos_site_id
 _symmetry_equiv_pos_as_xyz
  1  'x, y, z'
loop_
 _atom_site_type_symbol
 _atom_site_label
 _atom_site_symmetry_multiplicity
 _atom_site_fract_x
 _atom_site_fract_y
 _atom_site_fract_z
 _atom_site_occupancy
  C  C0  1  0.22459400  0.81523700  0.62026000  1
  C  C1  1  0.72459400  0.31523700  0.87974000  1
  C  C2  1  0.27540600  0.81523700  0.12026000  1
  C  C3  1  0.69533700  0.07162700  0.10429000  1
  C  C4  1  0.19533700  0.57162700  0.39571000  1
  C  C5  1  0.30466300  0.57162700  0.89571000  1
  C  C6  1  0.80466300  0.07162700  0.60429000  1
  C  C7  1  0.77540600  0.31523700  0.37974000  1
  C  C8  1  0.49469900  0.01414100  0.38820900  1
  C  C9  1  0.50530100  0.51414100  0.61179100  1
  C  C10  1  0.00530100  0.01414100  0.88820900  1
  C  C11  1  0.25214000  0.26334400  0.24608000  1
  C  C12  1  0.74786000  0.76334400  0.75392000  1
  C  C13  1  0.24786000  0.26334400  0.74608000  1
  C  C14  1  0.75214000  0.76334400  0.25392000  1
  C  C15  1  0.99469900  0.51414100  0.11179100  1
  C  C16  1  0.00073400  0.01573200  0.31692100  1
  C  C17  1  0.99926600  0.51573200  0.68307900  1
  C  C18  1  0.49926600  0.01573200  0.81692100  1
  C  C19  1  0.50073400  0.51573200  0.18307900  1
  C  C20  1  0.82880500  0.76483900  0.00020600  1
  C  C21  1  0.17119500  0.26483900  0.99979400  1
  C  C22  1  0.67119500  0.76483900  0.50020600  1
  C  C23  1  0.32880500  0.26483900  0.49979400  1
  Ni  Ni24  1  0.54187000  0.63072600  0.25631300  1
  Ni  Ni25  1  0.31223100  0.24419700  0.09572000  1
  Ni  Ni26  1  0.81223100  0.74419700  0.40428000  1
  Ni  Ni27  1  0.18776900  0.24419700  0.59572000  1
  Ni  Ni28  1  0.69146000  0.78269500  0.09820200  1
  Ni  Ni29  1  0.30854000  0.28269500  0.90179800  1
  Ni  Ni30  1  0.80854000  0.78269500  0.59820200  1
  Ni  Ni31  1  0.19146000  0.28269500  0.40179800  1
  Ni  Ni32  1  0.95176000  0.90272700  0.24312700  1
  Ni  Ni33  1  0.04824000  0.40272700  0.75687300  1
  Ni  Ni34  1  0.54824000  0.90272700  0.74312700  1
  Ni  Ni35  1  0.45176000  0.40272700  0.25687300  1
  Ni  Ni36  1  0.04187000  0.13072600  0.24368700  1
  Ni  Ni37  1  0.95813000  0.63072600  0.75631300  1
  Ni  Ni38  1  0.45813000  0.13072600  0.74368700  1
  Ni  Ni39  1  0.68776900  0.74419700  0.90428000  1
  Ni  Ni40  1  0.19194800  0.98716000  0.38642500  1
  Ni  Ni41  1  0.80805200  0.48716000  0.61357500  1
  Ni  Ni42  1  0.30805200  0.98716000  0.88642500  1
  Ni  Ni43  1  0.96976000  0.88404200  0.98860800  1
  Ni  Ni44  1  0.80851200  0.04513200  0.38662400  1
  Ni  Ni45  1  0.19148800  0.54513200  0.61337600  1
  Ni  Ni46  1  0.69148800  0.04513200  0.88662400  1
  Ni  Ni47  1  0.30851200  0.54513200  0.11337600  1
  Ni  Ni48  1  0.48386000  0.15269000  0.48551000  1
  Ni  Ni49  1  0.51614000  0.65269000  0.51449000  1
  Ni  Ni50  1  0.01614000  0.15269000  0.98551000  1
  Ni  Ni51  1  0.98386000  0.65269000  0.01449000  1
  Ni  Ni52  1  0.46976000  0.38404200  0.51139200  1
  Ni  Ni53  1  0.53024000  0.88404200  0.48860800  1
  Ni  Ni54  1  0.03024000  0.38404200  0.01139200  1
  Ni  Ni55  1  0.69194800  0.48716000  0.11357500  1
  Cu  Cu56  1  0.48214500  0.14297400  0.27252500  1
  Cu  Cu57  1  0.51785500  0.64297400  0.72747500  1
  Cu  Cu58  1  0.01785500  0.14297400  0.77252500  1
  Cu  Cu59  1  0.98214500  0.64297400  0.22747500  1
  Cu  Cu60  1  0.02582500  0.39243700  0.22919200  1
  Cu  Cu61  1  0.97417500  0.89243700  0.77080800  1
  Cu  Cu62  1  0.47417500  0.39243700  0.72919200  1
  Cu  Cu63  1  0.52582500  0.89243700  0.27080800  1
