# generated using pymatgen
data_Cu2NiC
_symmetry_space_group_name_H-M   'P 1'
_cell_length_a   5.31612500
_cell_length_b   3.55551400
_cell_length_c   11.09566491
_cell_angle_alpha   83.83149481
_cell_angle_beta   90.00000000
_cell_angle_gamma   90.00000000
_symmetry_Int_Tables_number   1
_chemical_formula_structural   Cu2NiC
_chemical_formula_sum   'Cu8 Ni4 C4'
_cell_volume   208.51106912
_cell_formula_units_Z   4
loop_
 _symmetry_equiv_pos_site_id
 _symmetry_equiv_pos_as_xyz
  1  'x, y, z'
loop_
 _atom_site_type_symbol
 _atom_site_label
 _atom_site_symmetry_multiplicity
 _atom_site_fract_x
 _atom_site_fract_y
 _atom_site_fract_z
 _atom_site_occupancy
  C  C0  1  0.81020300  0.68694000  0.85439500  1
  C  C1  1  0.18979700  0.68694000  0.35439500  1
  C  C2  1  0.67671400  0.29774400  0.15714200  1
  C  C3  1  0.32328600  0.29774400  0.65714200  1
  Ni  Ni4  1  0.71072500  0.11402200  0.43871700  1
  Ni  Ni5  1  0.28927500  0.11402200  0.93871700  1
  Ni  Ni6  1  0.81694400  0.89515700  0.55881300  1
  Ni  Ni7  1  0.18305600  0.89515700  0.05881300  1
  Cu  Cu8  1  0.97605300  0.72519200  0.04833700  1
  Cu  Cu9  1  0.02394700  0.72519200  0.54833700  1
  Cu  Cu10  1  0.51391600  0.23041400  0.93795600  1
  Cu  Cu11  1  0.48608400  0.23041400  0.43795600  1
  Cu  Cu12  1  0.31011500  0.89876700  0.15563900  1
  Cu  Cu13  1  0.68988500  0.89876700  0.65563900  1
  Cu  Cu14  1  0.13769400  0.15171400  0.84899100  1
  Cu  Cu15  1  0.86230600  0.15171400  0.34899100  1
