# generated using pymatgen
data_CuNi3C23
_symmetry_space_group_name_H-M   'P 1'
_cell_length_a   11.88159962
_cell_length_b   11.88159962
_cell_length_c   6.87062400
_cell_angle_alpha   90.00000000
_cell_angle_beta   90.00000000
_cell_angle_gamma   119.99999789
_symmetry_Int_Tables_number   1
_chemical_formula_structural   CuNi3C23
_chemical_formula_sum   'Cu2 Ni6 C46'
_cell_volume   839.99490223
_cell_formula_units_Z   2
loop_
 _symmetry_equiv_pos_site_id
 _symmetry_equiv_pos_as_xyz
  1  'x, y, z'
loop_
 _atom_site_type_symbol
 _atom_site_label
 _atom_site_symmetry_multiplicity
 _atom_site_fract_x
 _atom_site_fract_y
 _atom_site_fract_z
 _atom_site_occupancy
  C  C0  1  0.34615700  0.17307900  0.15853300  1
  C  C1  1  0.17307900  0.34615700  0.65853300  1
  C  C2  1  0.17307900  0.82692100  0.65853300  1
  C  C3  1  0.82692100  0.17307900  0.15853300  1
  C  C4  1  0.65384300  0.82692100  0.65853300  1
  C  C5  1  0.82692100  0.65384300  0.15853300  1
  C  C6  1  0.33333300  0.66666700  0.33894000  1
  C  C7  1  0.66666700  0.33333300  0.83894000  1
  C  C8  1  0.00000000  0.00000000  0.34141900  1
  C  C9  1  0.52302100  0.47697900  0.50029200  1
  C  C10  1  0.47697900  0.95395800  0.00029200  1
  C  C11  1  0.52302100  0.04604200  0.50029200  1
  C  C12  1  0.95395800  0.47697900  0.50029200  1
  C  C13  1  0.00000000  0.00000000  0.84141900  1
  C  C14  1  0.04604200  0.52302100  0.00029200  1
  C  C15  1  0.47697900  0.52302100  0.00029200  1
  Ni  Ni16  1  0.65729500  0.82864700  0.17558700  1
  Ni  Ni17  1  0.82864700  0.65729500  0.67558700  1
  Ni  Ni18  1  0.82864700  0.17135300  0.67558700  1
  Ni  Ni19  1  0.17135300  0.82864700  0.17558700  1
  Ni  Ni20  1  0.17135300  0.34270500  0.17558700  1
  Ni  Ni21  1  0.34270500  0.17135300  0.67558700  1
  Cu  Cu22  1  0.33333300  0.66666700  0.81573800  1
  Cu  Cu23  1  0.66666700  0.33333300  0.31573800  1
  C  C24  1  0.83298400  0.91649200  0.07077300  1
  C  C25  1  0.91649200  0.83298400  0.57077300  1
  C  C26  1  0.91649200  0.08350800  0.57077300  1
  C  C27  1  0.08350800  0.91649200  0.07077300  1
  C  C28  1  0.08350800  0.16701600  0.07077300  1
  C  C29  1  0.16701600  0.08350800  0.57077300  1
  C  C30  1  0.60504900  0.66182800  0.29996000  1
  C  C31  1  0.33817200  0.94322100  0.29996000  1
  C  C32  1  0.05677900  0.39495100  0.29996000  1
  C  C33  1  0.94322100  0.60504900  0.79996000  1
  C  C34  1  0.39495100  0.33817200  0.79996000  1
  C  C35  1  0.66182800  0.05677900  0.79996000  1
  C  C36  1  0.60504900  0.94322100  0.29996000  1
  C  C37  1  0.66182800  0.60504900  0.79996000  1
  C  C38  1  0.94322100  0.33817200  0.79996000  1
  C  C39  1  0.05677900  0.66182800  0.29996000  1
  C  C40  1  0.33817200  0.39495100  0.29996000  1
  C  C41  1  0.39495100  0.05677900  0.79996000  1
  C  C42  1  0.49778200  0.74889100  0.98835200  1
  C  C43  1  0.74889100  0.49778200  0.48835200  1
  C  C44  1  0.74889100  0.25110900  0.48835200  1
  C  C45  1  0.25110900  0.74889100  0.98835200  1
  C  C46  1  0.25110900  0.50221800  0.98835200  1
  C  C47  1  0.50221800  0.25110900  0.48835200  1
  C  C48  1  0.83323900  0.41661900  0.15551900  1
  C  C49  1  0.41661900  0.83323900  0.65551900  1
  C  C50  1  0.41661900  0.58338100  0.65551900  1
  C  C51  1  0.58338100  0.41661900  0.15551900  1
  C  C52  1  0.58338100  0.16676100  0.15551900  1
  C  C53  1  0.16676100  0.58338100  0.65551900  1
