# generated using pymatgen
data_CuNiC5
_symmetry_space_group_name_H-M   'P 1'
_cell_length_a   8.05965859
_cell_length_b   8.05965859
_cell_length_c   18.53777232
_cell_angle_alpha   77.55359985
_cell_angle_beta   77.55359985
_cell_angle_gamma   59.96632584
_symmetry_Int_Tables_number   1
_chemical_formula_structural   CuNiC5
_chemical_formula_sum   'Cu12 Ni12 C60'
_cell_volume   1009.70670026
_cell_formula_units_Z   12
loop_
 _symmetry_equiv_pos_site_id
 _symmetry_equiv_pos_as_xyz
  1  'x, y, z'
loop_
 _atom_site_type_symbol
 _atom_site_label
 _atom_site_symmetry_multiplicity
 _atom_site_fract_x
 _atom_site_fract_y
 _atom_site_fract_z
 _atom_site_occupancy
  C  C0  1  0.74455800  0.25544200  0.75000000  1
  C  C1  1  0.80449300  0.30201600  0.58418200  1
  C  C2  1  0.30201600  0.80449300  0.08418200  1
  C  C3  1  0.69798400  0.19550700  0.91581800  1
  C  C4  1  0.19550700  0.69798400  0.41581800  1
  C  C5  1  0.25544200  0.74455800  0.25000000  1
  C  C6  1  0.00000000  0.50000000  0.00000000  1
  C  C7  1  0.91311600  0.41060900  0.26033400  1
  C  C8  1  0.58939100  0.08688400  0.23966600  1
  C  C9  1  0.50000000  0.00000000  0.50000000  1
  C  C10  1  0.41060900  0.91311600  0.76033400  1
  C  C11  1  0.08688400  0.58939100  0.73966600  1
  Ni  Ni12  1  0.07898000  0.24109900  0.86047400  1
  Ni  Ni13  1  0.18491700  0.25274700  0.63814100  1
  Ni  Ni14  1  0.25274700  0.18491700  0.13814100  1
  Ni  Ni15  1  0.24109900  0.07898000  0.36047400  1
  Ni  Ni16  1  0.68469100  0.41804100  0.13847900  1
  Ni  Ni17  1  0.58195900  0.31530900  0.36152100  1
  Ni  Ni18  1  0.41804100  0.68469100  0.63847900  1
  Ni  Ni19  1  0.31530900  0.58195900  0.86152100  1
  Ni  Ni20  1  0.75890100  0.92102000  0.63952600  1
  Ni  Ni21  1  0.74725300  0.81508300  0.86185900  1
  Ni  Ni22  1  0.81508300  0.74725300  0.36185900  1
  Ni  Ni23  1  0.92102000  0.75890100  0.13952600  1
  Cu  Cu24  1  0.43228900  0.40091100  0.64001200  1
  Cu  Cu25  1  0.90548400  0.52060200  0.63844500  1
  Cu  Cu26  1  0.40091100  0.43228900  0.14001200  1
  Cu  Cu27  1  0.06768700  0.97398100  0.85905900  1
  Cu  Cu28  1  0.02601900  0.93231300  0.64094100  1
  Cu  Cu29  1  0.47939800  0.09451600  0.86155500  1
  Cu  Cu30  1  0.52060200  0.90548400  0.13844500  1
  Cu  Cu31  1  0.93231300  0.02601900  0.14094100  1
  Cu  Cu32  1  0.97398100  0.06768700  0.35905900  1
  Cu  Cu33  1  0.59908900  0.56771100  0.85998800  1
  Cu  Cu34  1  0.09451600  0.47939800  0.36155500  1
  Cu  Cu35  1  0.56771100  0.59908900  0.35998800  1
  C  C36  1  0.30356300  0.47209900  0.80364200  1
  C  C37  1  0.54696300  0.46484700  0.86949500  1
  C  C38  1  0.53515300  0.45303700  0.63050500  1
  C  C39  1  0.97580300  0.41429400  0.80250800  1
  C  C40  1  0.95378900  0.38151600  0.62957200  1
  C  C41  1  0.61848400  0.04621100  0.87042800  1
  C  C42  1  0.05545400  0.29184800  0.93692800  1
  C  C43  1  0.11355500  0.29077100  0.33366400  1
  C  C44  1  0.24100800  0.38297500  0.66627400  1
  C  C45  1  0.96777700  0.11323100  0.86772500  1
  C  C46  1  0.88676900  0.03222300  0.63227500  1
  C  C47  1  0.20556600  0.28548100  0.06130400  1
  C  C48  1  0.28548100  0.20556600  0.56130400  1
  C  C49  1  0.19772100  0.07917500  0.69549400  1
  C  C50  1  0.92082500  0.80227900  0.80450600  1
  C  C51  1  0.38297500  0.24100800  0.16627400  1
  C  C52  1  0.29077100  0.11355500  0.83366400  1
  C  C53  1  0.47209900  0.30356300  0.30364200  1
  C  C54  1  0.29184800  0.05545400  0.43692800  1
  C  C55  1  0.78931000  0.43893300  0.06188400  1
  C  C56  1  0.56106700  0.21069000  0.43811600  1
  C  C57  1  0.41429400  0.97580300  0.30250800  1
  C  C58  1  0.25946500  0.79033300  0.83292300  1
  C  C59  1  0.20966700  0.74053500  0.66707700  1
  C  C60  1  0.79033300  0.25946500  0.33292300  1
  C  C61  1  0.74053500  0.20966700  0.16707700  1
  C  C62  1  0.58570600  0.02419700  0.69749200  1
  C  C63  1  0.43893300  0.78931000  0.56188400  1
  C  C64  1  0.21069000  0.56106700  0.93811600  1
  C  C65  1  0.70815200  0.94454600  0.56307200  1
  C  C66  1  0.52790100  0.69643700  0.69635800  1
  C  C67  1  0.70922900  0.88644500  0.16633600  1
  C  C68  1  0.61702500  0.75899200  0.83372600  1
  C  C69  1  0.80227900  0.92082500  0.30450600  1
  C  C70  1  0.07917500  0.19772100  0.19549400  1
  C  C71  1  0.71451900  0.79443400  0.43869600  1
  C  C72  1  0.79443400  0.71451900  0.93869600  1
  C  C73  1  0.11323100  0.96777700  0.36772500  1
  C  C74  1  0.03222300  0.88676900  0.13227500  1
  C  C75  1  0.75899200  0.61702500  0.33372600  1
  C  C76  1  0.88644500  0.70922900  0.66633600  1
  C  C77  1  0.94454600  0.70815200  0.06307200  1
  C  C78  1  0.04621100  0.61848400  0.37042800  1
  C  C79  1  0.38151600  0.95378900  0.12957200  1
  C  C80  1  0.02419700  0.58570600  0.19749200  1
  C  C81  1  0.45303700  0.53515300  0.13050500  1
  C  C82  1  0.46484700  0.54696300  0.36949500  1
  C  C83  1  0.69643700  0.52790100  0.19635800  1
