# generated using pymatgen
data_Cu3NiC8
_symmetry_space_group_name_H-M   'P 1'
_cell_length_a   9.05653500
_cell_length_b   9.05788278
_cell_length_c   12.55658216
_cell_angle_alpha   89.16227398
_cell_angle_beta   88.95002057
_cell_angle_gamma   89.49217463
_symmetry_Int_Tables_number   1
_chemical_formula_structural   Cu3NiC8
_chemical_formula_sum   'Cu12 Ni4 C32'
_cell_volume   1029.73341536
_cell_formula_units_Z   4
loop_
 _symmetry_equiv_pos_site_id
 _symmetry_equiv_pos_as_xyz
  1  'x, y, z'
loop_
 _atom_site_type_symbol
 _atom_site_label
 _atom_site_symmetry_multiplicity
 _atom_site_fract_x
 _atom_site_fract_y
 _atom_site_fract_z
 _atom_site_occupancy
  C  C0  1  0.99985200  0.00037200  0.98988100  1
  C  C1  1  0.49862600  0.49774300  0.49000200  1
  C  C2  1  0.99832600  0.00340300  0.48963400  1
  C  C3  1  0.50026100  0.50064100  0.99002800  1
  C  C4  1  0.92219500  0.42159300  0.29649200  1
  C  C5  1  0.96616400  0.61453000  0.29342300  1
  C  C6  1  0.03458600  0.40248700  0.11729900  1
  C  C7  1  0.08055100  0.57934400  0.11676800  1
  C  C8  1  0.90344900  0.53479600  0.11391400  1
  C  C9  1  0.41925600  0.92555100  0.29853200  1
  C  C10  1  0.47211700  0.11629600  0.29428300  1
  C  C11  1  0.52301300  0.89693600  0.12091200  1
  C  C12  1  0.57782900  0.07137500  0.11322700  1
  C  C13  1  0.39870200  0.03438700  0.11728400  1
  C  C14  1  0.49075500  0.88868800  0.79773200  1
  C  C15  1  0.40138200  0.06725200  0.79489200  1
  C  C16  1  0.58599600  0.93489800  0.61811000  1
  C  C17  1  0.50864100  0.10290300  0.61429300  1
  C  C18  1  0.40348800  0.95355800  0.61786700  1
  C  C19  1  0.91906000  0.42652900  0.79753700  1
  C  C20  1  0.97659600  0.61550000  0.79350500  1
  C  C21  1  0.01960300  0.39742600  0.61833600  1
  C  C22  1  0.07818800  0.57072600  0.61171800  1
  C  C23  1  0.89825800  0.53761300  0.61885300  1
  C  C24  1  0.59837300  0.05394700  0.79272100  1
  C  C25  1  0.61105400  0.97472500  0.29342700  1
  C  C26  1  0.11169400  0.48007100  0.29365000  1
  C  C27  1  0.11236100  0.47059600  0.79257300  1
  Ni  Ni28  1  0.00253300  0.50399600  0.76638000  1
  Ni  Ni29  1  0.50036000  0.00521800  0.26728400  1
  Ni  Ni30  1  0.49676000  0.00218300  0.76696100  1
  Ni  Ni31  1  0.99988400  0.50488000  0.26631800  1
  Cu  Cu32  1  0.00033500  0.00135800  0.74651500  1
  Cu  Cu33  1  0.49980300  0.50191700  0.24652300  1
  Cu  Cu34  1  0.00056000  0.00051500  0.24656800  1
  Cu  Cu35  1  0.50064400  0.49860600  0.74646600  1
  Cu  Cu36  1  0.74558900  0.24240900  0.99219100  1
  Cu  Cu37  1  0.24864800  0.74894800  0.49451000  1
  Cu  Cu38  1  0.23902800  0.24531000  0.99392800  1
  Cu  Cu39  1  0.74772800  0.75498100  0.49546500  1
  Cu  Cu40  1  0.25099600  0.74835800  0.99497300  1
  Cu  Cu41  1  0.75377100  0.25416800  0.49124500  1
  Cu  Cu42  1  0.74599200  0.73815700  0.99266700  1
  Cu  Cu43  1  0.25501900  0.24754900  0.49183100  1
  C  C44  1  0.99933800  0.50213000  0.64745500  1
  C  C45  1  0.49932000  0.00183400  0.14839600  1
  C  C46  1  0.49872200  0.99844200  0.64801100  1
  C  C47  1  0.00337100  0.50448500  0.14725700  1
