# generated using pymatgen
data_Cu3Ni2C3
_symmetry_space_group_name_H-M   'P 1'
_cell_length_a   5.17117075
_cell_length_b   5.17117075
_cell_length_c   14.31610721
_cell_angle_alpha   86.27013050
_cell_angle_beta   86.27013050
_cell_angle_gamma   98.08876811
_symmetry_Int_Tables_number   1
_chemical_formula_structural   Cu3Ni2C3
_chemical_formula_sum   'Cu12 Ni8 C12'
_cell_volume   377.14727123
_cell_formula_units_Z   4
loop_
 _symmetry_equiv_pos_site_id
 _symmetry_equiv_pos_as_xyz
  1  'x, y, z'
loop_
 _atom_site_type_symbol
 _atom_site_label
 _atom_site_symmetry_multiplicity
 _atom_site_fract_x
 _atom_site_fract_y
 _atom_site_fract_z
 _atom_site_occupancy
  C  C0  1  0.50000000  0.50000000  0.50000000  1
  C  C1  1  0.50000000  0.50000000  0.00000000  1
  C  C2  1  0.87498800  0.12501200  0.75000000  1
  C  C3  1  0.12501200  0.87498800  0.25000000  1
  C  C4  1  0.91368800  0.00239500  0.60647800  1
  C  C5  1  0.99760500  0.08631200  0.89352200  1
  C  C6  1  0.08631200  0.99760500  0.39352200  1
  C  C7  1  0.00239500  0.91368800  0.10647800  1
  C  C8  1  0.49586300  0.90288400  0.80312700  1
  C  C9  1  0.09711600  0.50413700  0.69687300  1
  C  C10  1  0.50413700  0.09711600  0.19687300  1
  C  C11  1  0.90288400  0.49586300  0.30312700  1
  Ni  Ni12  1  0.99274900  0.98738700  0.66699600  1
  Ni  Ni13  1  0.01261300  0.00725100  0.83300400  1
  Ni  Ni14  1  0.00725100  0.01261300  0.33300400  1
  Ni  Ni15  1  0.98738700  0.99274900  0.16699600  1
  Ni  Ni16  1  0.57187700  0.06902200  0.76602500  1
  Ni  Ni17  1  0.93097800  0.42812300  0.73397500  1
  Ni  Ni18  1  0.42812300  0.93097800  0.23397500  1
  Ni  Ni19  1  0.06902200  0.57187700  0.26602500  1
  Cu  Cu20  1  0.37568700  0.58921500  0.62315700  1
  Cu  Cu21  1  0.41078500  0.62431300  0.87684300  1
  Cu  Cu22  1  0.62431300  0.41078500  0.37684300  1
  Cu  Cu23  1  0.58921500  0.37568700  0.12315700  1
  Cu  Cu24  1  0.62206000  0.20000700  0.55747000  1
  Cu  Cu25  1  0.79999300  0.37794000  0.94253000  1
  Cu  Cu26  1  0.37794000  0.79999300  0.44253000  1
  Cu  Cu27  1  0.20000700  0.62206000  0.05747000  1
  Cu  Cu28  1  0.16903700  0.29226700  0.48596700  1
  Cu  Cu29  1  0.70773300  0.83096300  0.01403300  1
  Cu  Cu30  1  0.83096300  0.70773300  0.51403300  1
  Cu  Cu31  1  0.29226700  0.16903700  0.98596700  1
