# generated using pymatgen
data_Cu3(NiC3)2
_symmetry_space_group_name_H-M   'P 1'
_cell_length_a   6.53641422
_cell_length_b   6.53641422
_cell_length_c   6.53641320
_cell_angle_alpha   77.94100538
_cell_angle_beta   77.94100538
_cell_angle_gamma   77.94100473
_symmetry_Int_Tables_number   1
_chemical_formula_structural   Cu3(NiC3)2
_chemical_formula_sum   'Cu3 Ni2 C6'
_cell_volume   263.05887308
_cell_formula_units_Z   1
loop_
 _symmetry_equiv_pos_site_id
 _symmetry_equiv_pos_as_xyz
  1  'x, y, z'
loop_
 _atom_site_type_symbol
 _atom_site_label
 _atom_site_symmetry_multiplicity
 _atom_site_fract_x
 _atom_site_fract_y
 _atom_site_fract_z
 _atom_site_occupancy
  Ni  Ni0  1  0.31440800  0.31440800  0.31440800  1
  Ni  Ni1  1  0.68559200  0.68559200  0.68559200  1
  Cu  Cu2  1  0.41248600  0.58751400  0.00000000  1
  Cu  Cu3  1  0.58751400  0.00000000  0.41248600  1
  Cu  Cu4  1  0.00000000  0.41248600  0.58751400  1
  C  C5  1  0.29903800  0.49689700  0.14888700  1
  C  C6  1  0.14888700  0.29903800  0.49689700  1
  C  C7  1  0.50310300  0.70096200  0.85111300  1
  C  C8  1  0.70096200  0.85111300  0.50310300  1
  C  C9  1  0.85111300  0.50310300  0.70096200  1
  C  C10  1  0.49689700  0.14888700  0.29903800  1
