# generated using pymatgen
data_Cu(NiC6)2
_symmetry_space_group_name_H-M   'P 1'
_cell_length_a   6.47508900
_cell_length_b   6.52914968
_cell_length_c   16.36826850
_cell_angle_alpha   97.69497892
_cell_angle_beta   97.35475039
_cell_angle_gamma   109.65517820
_symmetry_Int_Tables_number   1
_chemical_formula_structural   Cu(NiC6)2
_chemical_formula_sum   'Cu4 Ni8 C48'
_cell_volume   634.61038402
_cell_formula_units_Z   4
loop_
 _symmetry_equiv_pos_site_id
 _symmetry_equiv_pos_as_xyz
  1  'x, y, z'
loop_
 _atom_site_type_symbol
 _atom_site_label
 _atom_site_symmetry_multiplicity
 _atom_site_fract_x
 _atom_site_fract_y
 _atom_site_fract_z
 _atom_site_occupancy
  C  C0  1  0.03143800  0.94854200  0.97672100  1
  C  C1  1  0.00379200  0.50161200  0.83221100  1
  C  C2  1  0.01295000  0.91259600  0.67935600  1
  C  C3  1  0.06959200  0.11104800  0.32504000  1
  Ni  Ni4  1  0.01739700  0.49172300  0.66442800  1
  Ni  Ni5  1  0.01389600  0.01050300  0.49810900  1
  Ni  Ni6  1  0.00269200  0.51398500  0.33457800  1
  Ni  Ni7  1  0.99994900  0.99099200  0.82865300  1
  Ni  Ni8  1  0.51451000  0.50661900  0.49604400  1
  Ni  Ni9  1  0.99309700  0.48212200  0.00278700  1
  Ni  Ni10  1  0.52181200  0.50983300  0.16598000  1
  Ni  Ni11  1  0.01503700  0.01535400  0.16517400  1
  Cu  Cu12  1  0.48820600  0.49054300  0.83347300  1
  Cu  Cu13  1  0.50676900  0.99870000  0.66301100  1
  Cu  Cu14  1  0.51439300  0.00217200  0.33182700  1
  Cu  Cu15  1  0.50990100  0.99531600  0.00318600  1
  C  C16  1  0.49647600  0.99864300  0.83424300  1
  C  C17  1  0.51039600  0.49952700  0.66318200  1
  C  C18  1  0.50274700  0.00296100  0.49876400  1
  C  C19  1  0.49621100  0.49767300  0.33267500  1
  C  C20  1  0.00126100  0.50147700  0.49962800  1
  C  C21  1  0.50216600  0.50115500  0.00207600  1
  C  C22  1  0.49587700  0.99810000  0.16955700  1
  C  C23  1  0.00481700  0.50095000  0.16576200  1
  C  C24  1  0.81990900  0.30157100  0.96136800  1
  C  C25  1  0.87174000  0.18880500  0.76997700  1
  C  C26  1  0.82728900  0.71355100  0.82152500  1
  C  C27  1  0.82480300  0.31439500  0.62271400  1
  C  C28  1  0.70103200  0.87136000  0.94094900  1
  C  C29  1  0.48833000  0.17608700  0.89850900  1
  C  C30  1  0.70012800  0.52336500  0.72420500  1
  C  C31  1  0.87504000  0.17965100  0.43367600  1
  C  C32  1  0.81539600  0.68828000  0.49607800  1
  C  C33  1  0.31082400  0.48790600  0.94204000  1
  C  C34  1  0.49679000  0.81831400  0.77172600  1
  C  C35  1  0.69763300  0.86902100  0.60622600  1
  C  C36  1  0.82948000  0.30625700  0.28965700  1
  C  C37  1  0.48949100  0.18476100  0.56157500  1
  C  C38  1  0.30492700  0.13132600  0.72465700  1
  C  C39  1  0.68779500  0.50803700  0.39285500  1
  C  C40  1  0.86836200  0.18106200  0.10537700  1
  C  C41  1  0.17920700  0.28969800  0.84166200  1
  C  C42  1  0.82101700  0.68795900  0.16372300  1
  C  C43  1  0.12362800  0.81452200  0.89754300  1
  C  C44  1  0.31065500  0.48715600  0.60604100  1
  C  C45  1  0.68988900  0.86665600  0.27289800  1
  C  C46  1  0.51046400  0.81897300  0.43738300  1
  C  C47  1  0.18374200  0.70678700  0.70204000  1
  C  C48  1  0.47894600  0.17986500  0.23190700  1
  C  C49  1  0.30061100  0.12684600  0.39103300  1
  C  C50  1  0.70057300  0.52309000  0.05926800  1
  C  C51  1  0.18071200  0.30954300  0.50183100  1
  C  C52  1  0.12927700  0.82427300  0.56249000  1
  C  C53  1  0.30338800  0.48488400  0.27335200  1
  C  C54  1  0.50736700  0.81527900  0.10704800  1
  C  C55  1  0.30992300  0.13144500  0.06073300  1
  C  C56  1  0.17515100  0.68894800  0.37706700  1
  C  C57  1  0.17940300  0.30413300  0.17109600  1
  C  C58  1  0.12454600  0.81889100  0.23151500  1
  C  C59  1  0.17715100  0.69515600  0.04179100  1
