# generated using pymatgen
data_Cu4NiC9
_symmetry_space_group_name_H-M   'P 1'
_cell_length_a   8.68450083
_cell_length_b   8.68450083
_cell_length_c   8.41580100
_cell_angle_alpha   90.00000000
_cell_angle_beta   90.00000000
_cell_angle_gamma   119.99999109
_symmetry_Int_Tables_number   1
_chemical_formula_structural   Cu4NiC9
_chemical_formula_sum   'Cu8 Ni2 C18'
_cell_volume   549.68748630
_cell_formula_units_Z   2
loop_
 _symmetry_equiv_pos_site_id
 _symmetry_equiv_pos_as_xyz
  1  'x, y, z'
loop_
 _atom_site_type_symbol
 _atom_site_label
 _atom_site_symmetry_multiplicity
 _atom_site_fract_x
 _atom_site_fract_y
 _atom_site_fract_z
 _atom_site_occupancy
  C  C0  1  0.20150400  0.79849600  0.05821900  1
  C  C1  1  0.59699200  0.79849600  0.05821900  1
  C  C2  1  0.79849600  0.59699200  0.55821900  1
  C  C3  1  0.20150400  0.40300800  0.05821900  1
  C  C4  1  0.79849600  0.20150400  0.55821900  1
  C  C5  1  0.40300800  0.20150400  0.55821900  1
  C  C6  1  0.79849600  0.59699200  0.94178100  1
  C  C7  1  0.79849600  0.20150400  0.94178100  1
  C  C8  1  0.40300800  0.20150400  0.94178100  1
  C  C9  1  0.59699200  0.79849600  0.44178100  1
  C  C10  1  0.20150400  0.79849600  0.44178100  1
  C  C11  1  0.20150400  0.40300800  0.44178100  1
  C  C12  1  0.54204100  0.08408300  0.25000000  1
  C  C13  1  0.45795900  0.91591700  0.75000000  1
  C  C14  1  0.91591700  0.45795900  0.25000000  1
  C  C15  1  0.54204100  0.45795900  0.25000000  1
  C  C16  1  0.45795900  0.54204100  0.75000000  1
  C  C17  1  0.08408300  0.54204100  0.75000000  1
  Ni  Ni18  1  0.66666700  0.33333300  0.75000000  1
  Ni  Ni19  1  0.33333300  0.66666700  0.25000000  1
  Cu  Cu20  1  0.00000000  0.00000000  0.00000000  1
  Cu  Cu21  1  0.00000000  0.00000000  0.50000000  1
  Cu  Cu22  1  0.88818100  0.77636200  0.25000000  1
  Cu  Cu23  1  0.11181900  0.22363800  0.75000000  1
  Cu  Cu24  1  0.22363800  0.11181900  0.25000000  1
  Cu  Cu25  1  0.88818100  0.11181900  0.25000000  1
  Cu  Cu26  1  0.11181900  0.88818100  0.75000000  1
  Cu  Cu27  1  0.77636200  0.88818100  0.75000000  1
