# generated using pymatgen
data_CuNi2C5
_symmetry_space_group_name_H-M   'P 1'
_cell_length_a   4.12651800
_cell_length_b   5.19357500
_cell_length_c   8.85596800
_cell_angle_alpha   90.00000000
_cell_angle_beta   90.00000000
_cell_angle_gamma   90.00000000
_symmetry_Int_Tables_number   1
_chemical_formula_structural   CuNi2C5
_chemical_formula_sum   'Cu2 Ni4 C10'
_cell_volume   189.79562187
_cell_formula_units_Z   2
loop_
 _symmetry_equiv_pos_site_id
 _symmetry_equiv_pos_as_xyz
  1  'x, y, z'
loop_
 _atom_site_type_symbol
 _atom_site_label
 _atom_site_symmetry_multiplicity
 _atom_site_fract_x
 _atom_site_fract_y
 _atom_site_fract_z
 _atom_site_occupancy
  C  C0  1  0.50000000  0.60827800  0.49995700  1
  C  C1  1  0.50000000  0.39172200  0.99995700  1
  C  C2  1  0.31013500  0.90081500  0.18006700  1
  C  C3  1  0.68986500  0.90081500  0.18006700  1
  C  C4  1  0.00000000  0.22592600  0.29184600  1
  C  C5  1  0.00000000  0.13925600  0.46273300  1
  C  C6  1  0.31013500  0.09918500  0.68006700  1
  C  C7  1  0.68986500  0.09918500  0.68006700  1
  C  C8  1  0.00000000  0.77407400  0.79184600  1
  C  C9  1  0.00000000  0.86074400  0.96273300  1
  Ni  Ni10  1  0.50000000  0.79714300  0.21147600  1
  Ni  Ni11  1  0.00000000  0.29209700  0.39630400  1
  Ni  Ni12  1  0.50000000  0.20285700  0.71147600  1
  Ni  Ni13  1  0.00000000  0.70790300  0.89630400  1
  Cu  Cu14  1  0.00000000  0.09241600  0.11095000  1
  Cu  Cu15  1  0.00000000  0.90758400  0.61095000  1
