# generated using pymatgen
data_Cu3NiC
_symmetry_space_group_name_H-M   'P 1'
_cell_length_a   7.67932100
_cell_length_b   6.78859600
_cell_length_c   11.48856746
_cell_angle_alpha   55.69922137
_cell_angle_beta   90.00000000
_cell_angle_gamma   90.00000000
_symmetry_Int_Tables_number   1
_chemical_formula_structural   Cu3NiC
_chemical_formula_sum   'Cu12 Ni4 C4'
_cell_volume   494.76203106
_cell_formula_units_Z   4
loop_
 _symmetry_equiv_pos_site_id
 _symmetry_equiv_pos_as_xyz
  1  'x, y, z'
loop_
 _atom_site_type_symbol
 _atom_site_label
 _atom_site_symmetry_multiplicity
 _atom_site_fract_x
 _atom_site_fract_y
 _atom_site_fract_z
 _atom_site_occupancy
  C  C0  1  0.61408400  0.71165400  0.25021400  1
  C  C1  1  0.11408400  0.28834600  0.24978600  1
  C  C2  1  0.38591600  0.28834600  0.74978600  1
  C  C3  1  0.88591600  0.71165400  0.75021400  1
  Ni  Ni4  1  0.60690900  0.37142600  0.06567900  1
  Ni  Ni5  1  0.10690900  0.62857400  0.43432100  1
  Ni  Ni6  1  0.39309100  0.62857400  0.93432100  1
  Ni  Ni7  1  0.89309100  0.37142600  0.56567900  1
  Cu  Cu8  1  0.70283700  0.58739000  0.55942100  1
  Cu  Cu9  1  0.20283700  0.41261000  0.94057900  1
  Cu  Cu10  1  0.29716300  0.41261000  0.44057900  1
  Cu  Cu11  1  0.79716300  0.58739000  0.05942100  1
  Cu  Cu12  1  0.99614300  0.13889600  0.75895500  1
  Cu  Cu13  1  0.49614300  0.86110400  0.74104500  1
  Cu  Cu14  1  0.00385700  0.86110400  0.24104500  1
  Cu  Cu15  1  0.50385700  0.13889600  0.25895500  1
  Cu  Cu16  1  0.81195700  0.22307400  0.46252400  1
  Cu  Cu17  1  0.31195700  0.77692600  0.03747600  1
  Cu  Cu18  1  0.18804300  0.77692600  0.53747600  1
  Cu  Cu19  1  0.68804300  0.22307400  0.96252400  1
