# generated using pymatgen
data_CuNiC6
_symmetry_space_group_name_H-M   'P 1'
_cell_length_a   5.11856600
_cell_length_b   5.27667772
_cell_length_c   5.49952229
_cell_angle_alpha   117.20251781
_cell_angle_beta   89.26170620
_cell_angle_gamma   117.91010203
_symmetry_Int_Tables_number   1
_chemical_formula_structural   CuNiC6
_chemical_formula_sum   'Cu1 Ni1 C6'
_cell_volume   112.85565258
_cell_formula_units_Z   1
loop_
 _symmetry_equiv_pos_site_id
 _symmetry_equiv_pos_as_xyz
  1  'x, y, z'
loop_
 _atom_site_type_symbol
 _atom_site_label
 _atom_site_symmetry_multiplicity
 _atom_site_fract_x
 _atom_site_fract_y
 _atom_site_fract_z
 _atom_site_occupancy
  Ni  Ni0  1  0.00000000  0.00000000  0.00000000  1
  Cu  Cu1  1  0.50000000  0.00000000  0.50000000  1
  C  C2  1  0.24226500  0.35621500  0.75729000  1
  C  C3  1  0.75773500  0.64378500  0.24271000  1
  C  C4  1  0.40153200  0.00532100  0.26756300  1
  C  C5  1  0.59846800  0.99467900  0.73243700  1
  C  C6  1  0.86817200  0.62937000  0.74126900  1
  C  C7  1  0.13182800  0.37063000  0.25873100  1
