# generated using pymatgen
data_CuNi2C5
_symmetry_space_group_name_H-M   'P 1'
_cell_length_a   7.84256800
_cell_length_b   8.46952300
_cell_length_c   12.43320700
_cell_angle_alpha   90.00000000
_cell_angle_beta   90.00000000
_cell_angle_gamma   90.00000000
_symmetry_Int_Tables_number   1
_chemical_formula_structural   CuNi2C5
_chemical_formula_sum   'Cu4 Ni8 C20'
_cell_volume   825.84854694
_cell_formula_units_Z   4
loop_
 _symmetry_equiv_pos_site_id
 _symmetry_equiv_pos_as_xyz
  1  'x, y, z'
loop_
 _atom_site_type_symbol
 _atom_site_label
 _atom_site_symmetry_multiplicity
 _atom_site_fract_x
 _atom_site_fract_y
 _atom_site_fract_z
 _atom_site_occupancy
  Ni  Ni0  1  0.47136300  0.50017600  0.32185600  1
  Ni  Ni1  1  0.97136300  0.49982400  0.17814400  1
  Ni  Ni2  1  0.02863700  0.99982400  0.82185600  1
  Ni  Ni3  1  0.52863700  0.00017600  0.67814400  1
  Ni  Ni4  1  0.52863700  0.49982400  0.67814400  1
  Ni  Ni5  1  0.02863700  0.50017600  0.82185600  1
  Ni  Ni6  1  0.97136300  0.00017600  0.17814400  1
  Ni  Ni7  1  0.47136300  0.99982400  0.32185600  1
  Cu  Cu8  1  0.92818200  0.75000000  0.49245400  1
  Cu  Cu9  1  0.42818200  0.25000000  0.00754600  1
  Cu  Cu10  1  0.57181800  0.75000000  0.99245400  1
  Cu  Cu11  1  0.07181800  0.25000000  0.50754600  1
  C  C12  1  0.80743300  0.75000000  0.71598200  1
  C  C13  1  0.30743300  0.25000000  0.78401800  1
  C  C14  1  0.69256700  0.75000000  0.21598200  1
  C  C15  1  0.19256700  0.25000000  0.28401800  1
  C  C16  1  0.54340400  0.75000000  0.49913300  1
  C  C17  1  0.04340400  0.25000000  0.00086700  1
  C  C18  1  0.95659600  0.75000000  0.99913300  1
  C  C19  1  0.45659600  0.25000000  0.50086700  1
  C  C20  1  0.16697100  0.75000000  0.31246400  1
  C  C21  1  0.66697100  0.25000000  0.18753600  1
  C  C22  1  0.33302900  0.75000000  0.81246400  1
  C  C23  1  0.83302900  0.25000000  0.68753600  1
  C  C24  1  0.16883000  0.95664200  0.59462300  1
  C  C25  1  0.66883000  0.04335800  0.90537700  1
  C  C26  1  0.33117000  0.54335800  0.09462300  1
  C  C27  1  0.83117000  0.45664200  0.40537700  1
  C  C28  1  0.83117000  0.04335800  0.40537700  1
  C  C29  1  0.33117000  0.95664200  0.09462300  1
  C  C30  1  0.66883000  0.45664200  0.90537700  1
  C  C31  1  0.16883000  0.54335800  0.59462300  1
