# generated using pymatgen
data_Cu2NiC3
_symmetry_space_group_name_H-M   'P 1'
_cell_length_a   6.71906124
_cell_length_b   6.71906124
_cell_length_c   9.15415892
_cell_angle_alpha   74.93929986
_cell_angle_beta   74.93929986
_cell_angle_gamma   86.14102899
_symmetry_Int_Tables_number   1
_chemical_formula_structural   Cu2NiC3
_chemical_formula_sum   'Cu4 Ni2 C6'
_cell_volume   385.36840257
_cell_formula_units_Z   2
loop_
 _symmetry_equiv_pos_site_id
 _symmetry_equiv_pos_as_xyz
  1  'x, y, z'
loop_
 _atom_site_type_symbol
 _atom_site_label
 _atom_site_symmetry_multiplicity
 _atom_site_fract_x
 _atom_site_fract_y
 _atom_site_fract_z
 _atom_site_occupancy
  C  C0  1  0.25130300  0.14487100  0.02017300  1
  C  C1  1  0.14487100  0.25130300  0.52017300  1
  C  C2  1  0.64338500  0.35661500  0.25000000  1
  C  C3  1  0.35661500  0.64338500  0.75000000  1
  C  C4  1  0.85512900  0.74869700  0.47982700  1
  C  C5  1  0.74869700  0.85512900  0.97982700  1
  Ni  Ni6  1  0.71589600  0.28410400  0.75000000  1
  Ni  Ni7  1  0.28410400  0.71589600  0.25000000  1
  Cu  Cu8  1  0.58561300  0.14277500  0.64651000  1
  Cu  Cu9  1  0.85722500  0.41438700  0.85349000  1
  Cu  Cu10  1  0.14277500  0.58561300  0.14651000  1
  Cu  Cu11  1  0.41438700  0.85722500  0.35349000  1
