# generated using pymatgen
data_Cu6NiC3
_symmetry_space_group_name_H-M   'P 1'
_cell_length_a   5.62411299
_cell_length_b   5.62411299
_cell_length_c   5.62411353
_cell_angle_alpha   47.61088693
_cell_angle_beta   47.61088693
_cell_angle_gamma   47.61088204
_symmetry_Int_Tables_number   1
_chemical_formula_structural   Cu6NiC3
_chemical_formula_sum   'Cu6 Ni1 C3'
_cell_volume   88.82655112
_cell_formula_units_Z   1
loop_
 _symmetry_equiv_pos_site_id
 _symmetry_equiv_pos_as_xyz
  1  'x, y, z'
loop_
 _atom_site_type_symbol
 _atom_site_label
 _atom_site_symmetry_multiplicity
 _atom_site_fract_x
 _atom_site_fract_y
 _atom_site_fract_z
 _atom_site_occupancy
  C  C0  1  0.00000000  0.00000000  0.00000000  1
  C  C1  1  0.24072300  0.24072300  0.24072300  1
  C  C2  1  0.75927700  0.75927700  0.75927700  1
  Ni  Ni3  1  0.50000000  0.50000000  0.50000000  1
  Cu  Cu4  1  0.74425000  0.04745100  0.47643600  1
  Cu  Cu5  1  0.95254900  0.52356400  0.25575000  1
  Cu  Cu6  1  0.52356400  0.25575000  0.95254900  1
  Cu  Cu7  1  0.47643600  0.74425000  0.04745100  1
  Cu  Cu8  1  0.04745100  0.47643600  0.74425000  1
  Cu  Cu9  1  0.25575000  0.95254900  0.52356400  1
