# generated using pymatgen
data_Cu4Ni4C3
_symmetry_space_group_name_H-M   'P 1'
_cell_length_a   12.07271209
_cell_length_b   12.07271209
_cell_length_c   12.07271209
_cell_angle_alpha   161.67382902
_cell_angle_beta   161.22874993
_cell_angle_gamma   26.35085615
_symmetry_Int_Tables_number   1
_chemical_formula_structural   Cu4Ni4C3
_chemical_formula_sum   'Cu4 Ni4 C3'
_cell_volume   177.97217364
_cell_formula_units_Z   1
loop_
 _symmetry_equiv_pos_site_id
 _symmetry_equiv_pos_as_xyz
  1  'x, y, z'
loop_
 _atom_site_type_symbol
 _atom_site_label
 _atom_site_symmetry_multiplicity
 _atom_site_fract_x
 _atom_site_fract_y
 _atom_site_fract_z
 _atom_site_occupancy
  C  C0  1  0.00000000  0.00000000  0.00000000  1
  C  C1  1  0.35369200  0.85369200  0.50000000  1
  C  C2  1  0.64630800  0.14630800  0.50000000  1
  Ni  Ni3  1  0.45009200  0.45009200  0.00000000  1
  Ni  Ni4  1  0.54990800  0.54990800  0.00000000  1
  Ni  Ni5  1  0.19659600  0.69659600  0.50000000  1
  Ni  Ni6  1  0.80340400  0.30340400  0.50000000  1
  Cu  Cu7  1  0.74975200  0.74975200  0.00000000  1
  Cu  Cu8  1  0.90125300  0.40125300  0.50000000  1
  Cu  Cu9  1  0.09874700  0.59874700  0.50000000  1
  Cu  Cu10  1  0.25024800  0.25024800  0.00000000  1
