# generated using pymatgen
data_Cu12Ni16C
_symmetry_space_group_name_H-M   'P 1'
_cell_length_a   12.39687280
_cell_length_b   12.39687280
_cell_length_c   8.76591300
_cell_angle_alpha   90.00000000
_cell_angle_beta   90.00000000
_cell_angle_gamma   120.00000425
_symmetry_Int_Tables_number   1
_chemical_formula_structural   Cu12Ni16C
_chemical_formula_sum   'Cu12 Ni16 C1'
_cell_volume   1166.68082238
_cell_formula_units_Z   1
loop_
 _symmetry_equiv_pos_site_id
 _symmetry_equiv_pos_as_xyz
  1  'x, y, z'
loop_
 _atom_site_type_symbol
 _atom_site_label
 _atom_site_symmetry_multiplicity
 _atom_site_fract_x
 _atom_site_fract_y
 _atom_site_fract_z
 _atom_site_occupancy
  C  C0  1  0.62864700  0.62864700  0.37135300  1
  Ni  Ni1  1  0.00408300  0.00408300  0.65341900  1
  Ni  Ni2  1  0.38722200  0.38722200  0.28083000  1
  Ni  Ni3  1  0.00381300  0.00381300  0.99618700  1
  Ni  Ni4  1  0.68479000  0.68479000  0.71705000  1
  Ni  Ni5  1  0.31165600  0.60558700  0.00140100  1
  Ni  Ni6  1  0.99859900  0.31165600  0.39441300  1
  Ni  Ni7  1  0.38722200  0.71917000  0.61277800  1
  Ni  Ni8  1  0.00408300  0.34658100  0.99591700  1
  Ni  Ni9  1  0.60558700  0.99859900  0.68834400  1
  Ni  Ni10  1  0.28295000  0.68479000  0.31521000  1
  Ni  Ni11  1  0.68479000  0.28295000  0.31521000  1
  Ni  Ni12  1  0.99859900  0.60558700  0.68834400  1
  Ni  Ni13  1  0.34658100  0.00408300  0.99591700  1
  Ni  Ni14  1  0.71917000  0.38722200  0.61277800  1
  Ni  Ni15  1  0.31165600  0.99859900  0.39441300  1
  Ni  Ni16  1  0.60558700  0.31165600  0.00140100  1
  Cu  Cu17  1  0.37007300  0.37007300  0.81347600  1
  Cu  Cu18  1  0.18921900  0.18921900  0.17473100  1
  Cu  Cu19  1  0.63557600  0.81512000  0.99840400  1
  Cu  Cu20  1  0.18652400  0.37007300  0.62992700  1
  Cu  Cu21  1  0.81512000  0.00159600  0.36442400  1
  Cu  Cu22  1  0.82526900  0.18921900  0.81078100  1
  Cu  Cu23  1  0.63557600  0.00159600  0.18488000  1
  Cu  Cu24  1  0.00159600  0.63557600  0.18488000  1
  Cu  Cu25  1  0.18921900  0.82526900  0.81078100  1
  Cu  Cu26  1  0.00159600  0.81512000  0.36442400  1
  Cu  Cu27  1  0.37007300  0.18652400  0.62992700  1
  Cu  Cu28  1  0.81512000  0.63557600  0.99840400  1
