# generated using pymatgen
data_Cu10Ni21C4
_symmetry_space_group_name_H-M   'P 1'
_cell_length_a   4.53076100
_cell_length_b   11.89594458
_cell_length_c   14.64793420
_cell_angle_alpha   95.21695583
_cell_angle_beta   98.89680669
_cell_angle_gamma   100.97805753
_symmetry_Int_Tables_number   1
_chemical_formula_structural   Cu10Ni21C4
_chemical_formula_sum   'Cu10 Ni21 C4'
_cell_volume   759.79650152
_cell_formula_units_Z   1
loop_
 _symmetry_equiv_pos_site_id
 _symmetry_equiv_pos_as_xyz
  1  'x, y, z'
loop_
 _atom_site_type_symbol
 _atom_site_label
 _atom_site_symmetry_multiplicity
 _atom_site_fract_x
 _atom_site_fract_y
 _atom_site_fract_z
 _atom_site_occupancy
  C  C0  1  0.08637500  0.13512800  0.67506100  1
  C  C1  1  0.70737400  0.41194700  0.16579000  1
  C  C2  1  0.28511100  0.58805300  0.83421000  1
  C  C3  1  0.89656400  0.86487200  0.32493900  1
  Ni  Ni4  1  0.67202800  0.78844300  0.86741600  1
  Ni  Ni5  1  0.31622300  0.22011800  0.13238800  1
  Ni  Ni6  1  0.40244900  0.97674800  0.20399900  1
  Ni  Ni7  1  0.23674000  0.83245900  0.70238600  1
  Ni  Ni8  1  0.88834100  0.70791000  0.50471200  1
  Ni  Ni9  1  0.30352500  0.90030700  0.49578300  1
  Ni  Ni10  1  0.06088500  0.56442000  0.29951400  1
  Ni  Ni11  1  0.77158500  0.16754100  0.29761400  1
  Ni  Ni12  1  0.57937300  0.43438400  0.40433600  1
  Ni  Ni13  1  0.69961500  0.09969300  0.50421700  1
  Ni  Ni14  1  0.92481900  0.43558000  0.70048600  1
  Ni  Ni15  1  0.49523500  0.00000000  0.00000000  1
  Ni  Ni16  1  0.45257300  0.29355100  0.79404700  1
  Ni  Ni17  1  0.69512400  0.60338700  0.00211600  1
  Ni  Ni18  1  0.57581900  0.03448000  0.79834800  1
  Ni  Ni19  1  0.10096200  0.29209000  0.49528800  1
  Ni  Ni20  1  0.29275700  0.40738200  0.00045700  1
  Ni  Ni21  1  0.54017000  0.70644900  0.20595300  1
  Ni  Ni22  1  0.92279100  0.18107100  0.94945300  1
  Ni  Ni23  1  0.41765200  0.57707500  0.59423400  1
  Ni  Ni24  1  0.05875100  0.82755200  0.05306300  1
  Cu  Cu25  1  0.82235500  0.67883900  0.68982400  1
  Cu  Cu26  1  0.25682000  0.08285900  0.38502200  1
  Cu  Cu27  1  0.73436200  0.92634600  0.61539600  1
  Cu  Cu28  1  0.52312400  0.33517100  0.60616400  1
  Cu  Cu29  1  0.12813100  0.61984000  0.11375800  1
  Cu  Cu30  1  0.90988400  0.06593900  0.11109500  1
  Cu  Cu31  1  0.85992100  0.38974800  0.88764800  1
  Cu  Cu32  1  0.45615600  0.67579200  0.39415500  1
  Cu  Cu33  1  0.08691800  0.93406100  0.88890500  1
  Cu  Cu34  1  0.19101800  0.32116100  0.31017600  1
