# generated using pymatgen
data_CuNi2C3
_symmetry_space_group_name_H-M   'P 1'
_cell_length_a   8.95947350
_cell_length_b   8.95947350
_cell_length_c   5.80139200
_cell_angle_alpha   90.00000000
_cell_angle_beta   90.00000000
_cell_angle_gamma   99.28255677
_symmetry_Int_Tables_number   1
_chemical_formula_structural   CuNi2C3
_chemical_formula_sum   'Cu4 Ni8 C12'
_cell_volume   459.59202345
_cell_formula_units_Z   4
loop_
 _symmetry_equiv_pos_site_id
 _symmetry_equiv_pos_as_xyz
  1  'x, y, z'
loop_
 _atom_site_type_symbol
 _atom_site_label
 _atom_site_symmetry_multiplicity
 _atom_site_fract_x
 _atom_site_fract_y
 _atom_site_fract_z
 _atom_site_occupancy
  Ni  Ni0  1  0.56848900  0.93151100  0.25000000  1
  Ni  Ni1  1  0.67823000  0.32177000  0.21399600  1
  Ni  Ni2  1  0.32177000  0.67823000  0.78600400  1
  Ni  Ni3  1  0.06848900  0.43151100  0.25000000  1
  Ni  Ni4  1  0.93151100  0.56848900  0.75000000  1
  Ni  Ni5  1  0.43151100  0.06848900  0.75000000  1
  Ni  Ni6  1  0.82177000  0.17823000  0.71399600  1
  Ni  Ni7  1  0.17823000  0.82177000  0.28600400  1
  Cu  Cu8  1  0.88131000  0.88131000  0.50000000  1
  Cu  Cu9  1  0.11869000  0.11869000  0.50000000  1
  Cu  Cu10  1  0.61869000  0.61869000  0.00000000  1
  Cu  Cu11  1  0.38131000  0.38131000  0.00000000  1
  C  C12  1  0.87033500  0.87033500  0.00000000  1
  C  C13  1  0.12966500  0.12966500  0.00000000  1
  C  C14  1  0.37033500  0.37033500  0.50000000  1
  C  C15  1  0.62966500  0.62966500  0.50000000  1
  C  C16  1  0.10417900  0.89582100  0.78636600  1
  C  C17  1  0.60417900  0.39582100  0.71363400  1
  C  C18  1  0.89582100  0.10417900  0.21363400  1
  C  C19  1  0.39582100  0.60417900  0.28636600  1
  C  C20  1  0.35138500  0.14861500  0.25000000  1
  C  C21  1  0.14861500  0.35138500  0.75000000  1
  C  C22  1  0.64861500  0.85138500  0.75000000  1
  C  C23  1  0.85138500  0.64861500  0.25000000  1
