# generated using pymatgen
data_CuNi3C11
_symmetry_space_group_name_H-M   'P 1'
_cell_length_a   6.78857900
_cell_length_b   7.26910401
_cell_length_c   7.85666083
_cell_angle_alpha   92.31762359
_cell_angle_beta   102.52578194
_cell_angle_gamma   90.00331048
_symmetry_Int_Tables_number   1
_chemical_formula_structural   CuNi3C11
_chemical_formula_sum   'Cu2 Ni6 C22'
_cell_volume   378.14879559
_cell_formula_units_Z   2
loop_
 _symmetry_equiv_pos_site_id
 _symmetry_equiv_pos_as_xyz
  1  'x, y, z'
loop_
 _atom_site_type_symbol
 _atom_site_label
 _atom_site_symmetry_multiplicity
 _atom_site_fract_x
 _atom_site_fract_y
 _atom_site_fract_z
 _atom_site_occupancy
  C  C0  1  0.58493100  0.64294100  0.84539300  1
  C  C1  1  0.41506900  0.35705900  0.15460700  1
  C  C2  1  0.08791000  0.65350100  0.85323400  1
  C  C3  1  0.91209000  0.34649900  0.14676600  1
  Ni  Ni4  1  0.09543600  0.16152700  0.77763100  1
  Ni  Ni5  1  0.90456400  0.83847300  0.22236900  1
  Ni  Ni6  1  0.53665700  0.16976900  0.77601400  1
  Ni  Ni7  1  0.46334300  0.83023100  0.22398600  1
  Ni  Ni8  1  0.76687300  0.36223000  0.55220900  1
  Ni  Ni9  1  0.23312700  0.63777000  0.44779100  1
  Cu  Cu10  1  0.79638600  0.97966700  0.82161600  1
  Cu  Cu11  1  0.20361400  0.02033300  0.17838400  1
  C  C12  1  0.12483600  0.31072300  0.91887200  1
  C  C13  1  0.87516400  0.68927700  0.08112800  1
  C  C14  1  0.58515800  0.31521400  0.91896800  1
  C  C15  1  0.41484200  0.68478600  0.08103200  1
  C  C16  1  0.63975800  0.98034900  0.82084800  1
  C  C17  1  0.36024200  0.01965100  0.17915200  1
  C  C18  1  0.00905200  0.97840300  0.81137900  1
  C  C19  1  0.99094800  0.02159700  0.18862100  1
  C  C20  1  0.30525900  0.11565800  0.71584900  1
  C  C21  1  0.69474100  0.88434200  0.28415100  1
  C  C22  1  0.96521700  0.23141900  0.59551700  1
  C  C23  1  0.03478300  0.76858100  0.40448300  1
  C  C24  1  0.58976500  0.22734300  0.59797800  1
  C  C25  1  0.41023500  0.77265700  0.40202200  1
  C  C26  1  0.79393100  0.52799400  0.67388600  1
  C  C27  1  0.20606900  0.47200600  0.32611400  1
  C  C28  1  0.28427900  0.62260800  0.64062700  1
  C  C29  1  0.71572100  0.37739200  0.35937300  1
