# generated using pymatgen
data_Cu7(NiC)4
_symmetry_space_group_name_H-M   'P 1'
_cell_length_a   9.68358250
_cell_length_b   9.68358250
_cell_length_c   9.68358250
_cell_angle_alpha   94.12836303
_cell_angle_beta   94.12836303
_cell_angle_gamma   148.87233799
_symmetry_Int_Tables_number   1
_chemical_formula_structural   Cu7(NiC)4
_chemical_formula_sum   'Cu14 Ni8 C8'
_cell_volume   452.19937735
_cell_formula_units_Z   2
loop_
 _symmetry_equiv_pos_site_id
 _symmetry_equiv_pos_as_xyz
  1  'x, y, z'
loop_
 _atom_site_type_symbol
 _atom_site_label
 _atom_site_symmetry_multiplicity
 _atom_site_fract_x
 _atom_site_fract_y
 _atom_site_fract_z
 _atom_site_occupancy
  C  C0  1  0.13872600  0.13872600  0.27745300  1
  C  C1  1  0.86127400  0.86127400  0.72254700  1
  C  C2  1  0.13872600  0.86127400  0.00000000  1
  C  C3  1  0.86127400  0.13872600  0.00000000  1
  C  C4  1  0.30507800  0.50000000  0.80507800  1
  C  C5  1  0.69492200  0.50000000  0.19492200  1
  C  C6  1  0.50000000  0.69492200  0.19492200  1
  C  C7  1  0.50000000  0.30507800  0.80507800  1
  Ni  Ni8  1  0.60104300  0.39895700  0.50000000  1
  Ni  Ni9  1  0.89895700  0.10104300  0.50000000  1
  Ni  Ni10  1  0.10104300  0.60104300  0.20208500  1
  Ni  Ni11  1  0.39895700  0.89895700  0.79791500  1
  Ni  Ni12  1  0.60104300  0.10104300  0.20208500  1
  Ni  Ni13  1  0.89895700  0.39895700  0.79791500  1
  Ni  Ni14  1  0.10104300  0.89895700  0.50000000  1
  Ni  Ni15  1  0.39895700  0.60104300  0.50000000  1
  Cu  Cu16  1  0.29323200  0.29323200  0.58646300  1
  Cu  Cu17  1  0.70676800  0.70676800  0.41353700  1
  Cu  Cu18  1  0.29323200  0.70676800  0.00000000  1
  Cu  Cu19  1  0.70676800  0.29323200  0.00000000  1
  Cu  Cu20  1  0.09412800  0.50000000  0.59412800  1
  Cu  Cu21  1  0.90587200  0.50000000  0.40587200  1
  Cu  Cu22  1  0.50000000  0.90587200  0.40587200  1
  Cu  Cu23  1  0.50000000  0.09412800  0.59412800  1
  Cu  Cu24  1  0.29178200  0.00000000  0.29178200  1
  Cu  Cu25  1  0.70821800  0.00000000  0.70821800  1
  Cu  Cu26  1  0.00000000  0.70821800  0.70821800  1
  Cu  Cu27  1  0.00000000  0.29178200  0.29178200  1
  Cu  Cu28  1  0.24875400  0.24875400  0.00000000  1
  Cu  Cu29  1  0.75124600  0.75124600  0.00000000  1
