# generated using pymatgen
data_Cu6Ni3C2
_symmetry_space_group_name_H-M   'P 1'
_cell_length_a   7.16882285
_cell_length_b   7.16882285
_cell_length_c   7.16882295
_cell_angle_alpha   71.66410497
_cell_angle_beta   71.66410497
_cell_angle_gamma   71.66410547
_symmetry_Int_Tables_number   1
_chemical_formula_structural   Cu6Ni3C2
_chemical_formula_sum   'Cu12 Ni6 C4'
_cell_volume   322.31428431
_cell_formula_units_Z   2
loop_
 _symmetry_equiv_pos_site_id
 _symmetry_equiv_pos_as_xyz
  1  'x, y, z'
loop_
 _atom_site_type_symbol
 _atom_site_label
 _atom_site_symmetry_multiplicity
 _atom_site_fract_x
 _atom_site_fract_y
 _atom_site_fract_z
 _atom_site_occupancy
  C  C0  1  0.09945200  0.09945200  0.09945200  1
  C  C1  1  0.90054800  0.90054800  0.90054800  1
  C  C2  1  0.40054800  0.40054800  0.40054800  1
  C  C3  1  0.59945200  0.59945200  0.59945200  1
  Ni  Ni4  1  0.17536100  0.75000000  0.32463900  1
  Ni  Ni5  1  0.82463900  0.25000000  0.67536100  1
  Ni  Ni6  1  0.25000000  0.67536100  0.82463900  1
  Ni  Ni7  1  0.67536100  0.82463900  0.25000000  1
  Ni  Ni8  1  0.32463900  0.17536100  0.75000000  1
  Ni  Ni9  1  0.75000000  0.32463900  0.17536100  1
  Cu  Cu10  1  0.90336700  0.07086600  0.72954400  1
  Cu  Cu11  1  0.42913400  0.59663300  0.77045600  1
  Cu  Cu12  1  0.72954400  0.90336700  0.07086600  1
  Cu  Cu13  1  0.57086600  0.40336700  0.22954400  1
  Cu  Cu14  1  0.09663300  0.92913400  0.27045600  1
  Cu  Cu15  1  0.22954400  0.57086600  0.40336700  1
  Cu  Cu16  1  0.92913400  0.27045600  0.09663300  1
  Cu  Cu17  1  0.27045600  0.09663300  0.92913400  1
  Cu  Cu18  1  0.07086600  0.72954400  0.90336700  1
  Cu  Cu19  1  0.40336700  0.22954400  0.57086600  1
  Cu  Cu20  1  0.59663300  0.77045600  0.42913400  1
  Cu  Cu21  1  0.77045600  0.42913400  0.59663300  1
