# generated using pymatgen
data_CuNiC3
_symmetry_space_group_name_H-M   'P 1'
_cell_length_a   6.37856794
_cell_length_b   6.37856794
_cell_length_c   6.37856837
_cell_angle_alpha   51.45903291
_cell_angle_beta   51.45903291
_cell_angle_gamma   51.45904311
_symmetry_Int_Tables_number   1
_chemical_formula_structural   CuNiC3
_chemical_formula_sum   'Cu2 Ni2 C6'
_cell_volume   146.60367700
_cell_formula_units_Z   2
loop_
 _symmetry_equiv_pos_site_id
 _symmetry_equiv_pos_as_xyz
  1  'x, y, z'
loop_
 _atom_site_type_symbol
 _atom_site_label
 _atom_site_symmetry_multiplicity
 _atom_site_fract_x
 _atom_site_fract_y
 _atom_site_fract_z
 _atom_site_occupancy
  Ni  Ni0  1  0.65881500  0.65881500  0.65881500  1
  Ni  Ni1  1  0.34118500  0.34118500  0.34118500  1
  Cu  Cu2  1  0.85842600  0.85842600  0.85842600  1
  Cu  Cu3  1  0.14157400  0.14157400  0.14157400  1
  C  C4  1  0.69129200  0.05873200  0.45902200  1
  C  C5  1  0.45902200  0.69129200  0.05873200  1
  C  C6  1  0.05873200  0.45902200  0.69129200  1
  C  C7  1  0.30870800  0.94126800  0.54097800  1
  C  C8  1  0.94126800  0.54097800  0.30870800  1
  C  C9  1  0.54097800  0.30870800  0.94126800  1
