# generated using pymatgen
data_CuNiC6
_symmetry_space_group_name_H-M   'P 1'
_cell_length_a   13.50841932
_cell_length_b   12.06708849
_cell_length_c   7.24178097
_cell_angle_alpha   84.88546082
_cell_angle_beta   62.84117037
_cell_angle_gamma   32.27336881
_symmetry_Int_Tables_number   1
_chemical_formula_structural   CuNiC6
_chemical_formula_sum   'Cu2 Ni2 C12'
_cell_volume   437.92127288
_cell_formula_units_Z   2
loop_
 _symmetry_equiv_pos_site_id
 _symmetry_equiv_pos_as_xyz
  1  'x, y, z'
loop_
 _atom_site_type_symbol
 _atom_site_label
 _atom_site_symmetry_multiplicity
 _atom_site_fract_x
 _atom_site_fract_y
 _atom_site_fract_z
 _atom_site_occupancy
  C  C0  1  0.67852200  0.67852200  0.32147800  1
  C  C1  1  0.32147800  0.32147800  0.67852200  1
  C  C2  1  0.57147800  0.57147800  0.92852200  1
  C  C3  1  0.92852200  0.92852200  0.57147800  1
  Ni  Ni4  1  0.50000000  0.50000000  0.50000000  1
  Ni  Ni5  1  0.75000000  0.75000000  0.75000000  1
  Cu  Cu6  1  0.00000000  0.00000000  0.00000000  1
  Cu  Cu7  1  0.25000000  0.25000000  0.25000000  1
  C  C8  1  0.89872300  0.21188500  0.30039200  1
  C  C9  1  0.58900100  0.30039200  0.21188500  1
  C  C10  1  0.94960800  0.66099900  0.35127700  1
  C  C11  1  0.03811500  0.35127700  0.66099900  1
  C  C12  1  0.35127700  0.03811500  0.94960800  1
  C  C13  1  0.66099900  0.94960800  0.03811500  1
  C  C14  1  0.30039200  0.58900100  0.89872300  1
  C  C15  1  0.21188500  0.89872300  0.58900100  1
