# generated using pymatgen
data_CuNiC6
_symmetry_space_group_name_H-M   'P 1'
_cell_length_a   5.57506755
_cell_length_b   5.57506755
_cell_length_c   13.70876000
_cell_angle_alpha   90.00000000
_cell_angle_beta   90.00000000
_cell_angle_gamma   119.99999470
_symmetry_Int_Tables_number   1
_chemical_formula_structural   CuNiC6
_chemical_formula_sum   'Cu2 Ni2 C12'
_cell_volume   369.00231977
_cell_formula_units_Z   2
loop_
 _symmetry_equiv_pos_site_id
 _symmetry_equiv_pos_as_xyz
  1  'x, y, z'
loop_
 _atom_site_type_symbol
 _atom_site_label
 _atom_site_symmetry_multiplicity
 _atom_site_fract_x
 _atom_site_fract_y
 _atom_site_fract_z
 _atom_site_occupancy
  C  C0  1  0.33333300  0.66666700  0.40183500  1
  C  C1  1  0.00000000  0.00000000  0.25000000  1
  C  C2  1  0.00000000  0.00000000  0.75000000  1
  C  C3  1  0.66666700  0.33333300  0.90183500  1
  C  C4  1  0.66666700  0.33333300  0.59816500  1
  C  C5  1  0.33333300  0.66666700  0.09816500  1
  Ni  Ni6  1  0.66666700  0.33333300  0.25000000  1
  Ni  Ni7  1  0.33333300  0.66666700  0.75000000  1
  Cu  Cu8  1  0.00000000  0.00000000  0.00000000  1
  Cu  Cu9  1  0.00000000  0.00000000  0.50000000  1
  C  C10  1  0.47815100  0.95630100  0.75000000  1
  C  C11  1  0.52184900  0.47815100  0.25000000  1
  C  C12  1  0.52184900  0.04369900  0.25000000  1
  C  C13  1  0.04369900  0.52184900  0.75000000  1
  C  C14  1  0.47815100  0.52184900  0.75000000  1
  C  C15  1  0.95630100  0.47815100  0.25000000  1
