# generated using pymatgen
data_Cu2Ni2C7
_symmetry_space_group_name_H-M   'P 1'
_cell_length_a   5.34336965
_cell_length_b   5.34336965
_cell_length_c   9.81317432
_cell_angle_alpha   76.10324524
_cell_angle_beta   76.10324524
_cell_angle_gamma   94.13482226
_symmetry_Int_Tables_number   1
_chemical_formula_structural   Cu2Ni2C7
_chemical_formula_sum   'Cu4 Ni4 C14'
_cell_volume   261.50384770
_cell_formula_units_Z   2
loop_
 _symmetry_equiv_pos_site_id
 _symmetry_equiv_pos_as_xyz
  1  'x, y, z'
loop_
 _atom_site_type_symbol
 _atom_site_label
 _atom_site_symmetry_multiplicity
 _atom_site_fract_x
 _atom_site_fract_y
 _atom_site_fract_z
 _atom_site_occupancy
  Ni  Ni0  1  0.40845700  0.25389900  0.97787400  1
  Ni  Ni1  1  0.74610100  0.59154300  0.52212600  1
  Ni  Ni2  1  0.59154300  0.74610100  0.02212600  1
  Ni  Ni3  1  0.25389900  0.40845700  0.47787400  1
  Cu  Cu4  1  0.48692900  0.98989000  0.70568200  1
  Cu  Cu5  1  0.01011000  0.51307100  0.79431800  1
  Cu  Cu6  1  0.51307100  0.01011000  0.29431800  1
  Cu  Cu7  1  0.98989000  0.48692900  0.20568200  1
  C  C8  1  0.55924400  0.01445200  0.87197200  1
  C  C9  1  0.98554800  0.44075600  0.62802800  1
  C  C10  1  0.44075600  0.98554800  0.12802800  1
  C  C11  1  0.01445200  0.55924400  0.37197200  1
  C  C12  1  0.48408400  0.31414000  0.60112700  1
  C  C13  1  0.68586000  0.51591600  0.89887300  1
  C  C14  1  0.51591600  0.68586000  0.39887300  1
  C  C15  1  0.31414000  0.48408400  0.10112700  1
  C  C16  1  0.83694600  0.16305400  0.25000000  1
  C  C17  1  0.16305400  0.83694600  0.75000000  1
  C  C18  1  0.85027000  0.71551400  0.10351500  1
  C  C19  1  0.28448600  0.14973000  0.39648500  1
  C  C20  1  0.14973000  0.28448600  0.89648500  1
  C  C21  1  0.71551400  0.85027000  0.60351500  1
