# generated using pymatgen
data_CuNiC7
_symmetry_space_group_name_H-M   'P 1'
_cell_length_a   6.07679100
_cell_length_b   6.07679100
_cell_length_c   8.46392100
_cell_angle_alpha   90.00000000
_cell_angle_beta   90.00000000
_cell_angle_gamma   90.00000000
_symmetry_Int_Tables_number   1
_chemical_formula_structural   CuNiC7
_chemical_formula_sum   'Cu2 Ni2 C14'
_cell_volume   312.55050203
_cell_formula_units_Z   2
loop_
 _symmetry_equiv_pos_site_id
 _symmetry_equiv_pos_as_xyz
  1  'x, y, z'
loop_
 _atom_site_type_symbol
 _atom_site_label
 _atom_site_symmetry_multiplicity
 _atom_site_fract_x
 _atom_site_fract_y
 _atom_site_fract_z
 _atom_site_occupancy
  Ni  Ni0  1  0.00000000  0.00000000  0.50000000  1
  Ni  Ni1  1  0.50000000  0.50000000  0.50000000  1
  Cu  Cu2  1  0.50000000  0.00000000  0.22707100  1
  Cu  Cu3  1  0.00000000  0.50000000  0.77292900  1
  C  C4  1  0.00000000  0.50000000  0.25393500  1
  C  C5  1  0.50000000  0.00000000  0.74606500  1
  C  C6  1  0.00000000  0.50000000  0.04449100  1
  C  C7  1  0.00000000  0.50000000  0.47286400  1
  C  C8  1  0.50000000  0.00000000  0.52713600  1
  C  C9  1  0.50000000  0.00000000  0.95550900  1
  C  C10  1  0.77009800  0.27009800  0.26213100  1
  C  C11  1  0.22990200  0.27009800  0.26213100  1
  C  C12  1  0.77009800  0.72990200  0.26213100  1
  C  C13  1  0.22990200  0.72990200  0.26213100  1
  C  C14  1  0.27009800  0.77009800  0.73786900  1
  C  C15  1  0.72990200  0.77009800  0.73786900  1
  C  C16  1  0.27009800  0.22990200  0.73786900  1
  C  C17  1  0.72990200  0.22990200  0.73786900  1
