# generated using pymatgen
data_Cu2Ni2C11
_symmetry_space_group_name_H-M   'P 1'
_cell_length_a   4.72855000
_cell_length_b   12.14089700
_cell_length_c   12.34320000
_cell_angle_alpha   90.00000000
_cell_angle_beta   90.00000000
_cell_angle_gamma   90.00000000
_symmetry_Int_Tables_number   1
_chemical_formula_structural   Cu2Ni2C11
_chemical_formula_sum   'Cu8 Ni8 C44'
_cell_volume   708.60877549
_cell_formula_units_Z   4
loop_
 _symmetry_equiv_pos_site_id
 _symmetry_equiv_pos_as_xyz
  1  'x, y, z'
loop_
 _atom_site_type_symbol
 _atom_site_label
 _atom_site_symmetry_multiplicity
 _atom_site_fract_x
 _atom_site_fract_y
 _atom_site_fract_z
 _atom_site_occupancy
  C  C0  1  0.24786600  0.99452900  0.73609400  1
  C  C1  1  0.74786600  0.50547100  0.26390600  1
  C  C2  1  0.75213400  0.49452900  0.76390600  1
  C  C3  1  0.25213400  0.00547100  0.23609400  1
  Ni  Ni4  1  0.99674500  0.35660700  0.00271400  1
  Ni  Ni5  1  0.25263200  0.25062700  0.39309100  1
  Ni  Ni6  1  0.75263200  0.24937300  0.60690900  1
  Ni  Ni7  1  0.74736800  0.75062700  0.10690900  1
  Ni  Ni8  1  0.24736800  0.74937300  0.89309100  1
  Ni  Ni9  1  0.49674500  0.14339300  0.99728600  1
  Ni  Ni10  1  0.00325500  0.85660700  0.49728500  1
  Ni  Ni11  1  0.50325500  0.64339300  0.50271400  1
  Cu  Cu12  1  0.52320100  0.03467900  0.49873500  1
  Cu  Cu13  1  0.25360000  0.25871400  0.78335500  1
  Cu  Cu14  1  0.75360000  0.24128600  0.21664500  1
  Cu  Cu15  1  0.24640000  0.74128600  0.28335500  1
  Cu  Cu16  1  0.74640000  0.75871400  0.71664500  1
  Cu  Cu17  1  0.97679900  0.96532100  0.99873500  1
  Cu  Cu18  1  0.47679900  0.53467900  0.00126500  1
  Cu  Cu19  1  0.02320100  0.46532100  0.50126500  1
  C  C20  1  0.84972900  0.33970400  0.14477500  1
  C  C21  1  0.59249800  0.60572200  0.09585900  1
  C  C22  1  0.90750200  0.39427800  0.59585900  1
  C  C23  1  0.40750200  0.10572200  0.40414100  1
  C  C24  1  0.96931600  0.70552000  0.79256000  1
  C  C25  1  0.46931600  0.79448000  0.20744000  1
  C  C26  1  0.03068400  0.20552000  0.70744000  1
  C  C27  1  0.53068400  0.29448000  0.29256000  1
  C  C28  1  0.86784200  0.85656700  0.64944200  1
  C  C29  1  0.36784200  0.64343300  0.35055800  1
  C  C30  1  0.13215800  0.35656700  0.85055800  1
  C  C31  1  0.63215800  0.14343300  0.14944200  1
  C  C32  1  0.15027100  0.83970400  0.35522500  1
  C  C33  1  0.65027100  0.66029600  0.64477500  1
  C  C34  1  0.09249800  0.89427800  0.90414100  1
  C  C35  1  0.09712500  0.39586400  0.39842000  1
  C  C36  1  0.40287500  0.60413600  0.89842000  1
  C  C37  1  0.90287500  0.89586400  0.10158000  1
  C  C38  1  0.59712500  0.10413600  0.60158000  1
  C  C39  1  0.27678500  0.52819800  0.54723300  1
  C  C40  1  0.20916200  0.04552400  0.04038600  1
  C  C41  1  0.70916200  0.45447600  0.95961400  1
  C  C42  1  0.79083800  0.54552400  0.45961400  1
  C  C43  1  0.29083800  0.95447600  0.54038600  1
  C  C44  1  0.00965800  0.19523200  0.28157700  1
  C  C45  1  0.50965800  0.30476800  0.71842300  1
  C  C46  1  0.99034200  0.69523200  0.21842300  1
  C  C47  1  0.49034200  0.80476800  0.78157700  1
  C  C48  1  0.22321500  0.47180200  0.04723300  1
  C  C49  1  0.72321500  0.02819800  0.95276700  1
  C  C50  1  0.77678500  0.97180200  0.45276700  1
  C  C51  1  0.34972900  0.16029600  0.85522500  1
  C  C52  1  0.48690900  0.29215400  0.50539800  1
  C  C53  1  0.98690900  0.20784600  0.49460200  1
  C  C54  1  0.51309100  0.79215400  0.99460200  1
  C  C55  1  0.01309100  0.70784600  0.00539800  1
  C  C56  1  0.27923500  0.26036600  0.03882700  1
  C  C57  1  0.77923500  0.23963400  0.96117300  1
  C  C58  1  0.72076500  0.76036600  0.46117300  1
  C  C59  1  0.22076500  0.73963400  0.53882700  1
