# generated using pymatgen
data_Cu2NiC6
_symmetry_space_group_name_H-M   'P 1'
_cell_length_a   4.77834800
_cell_length_b   4.77834800
_cell_length_c   9.26435700
_cell_angle_alpha   90.00000000
_cell_angle_beta   90.00000000
_cell_angle_gamma   90.00000000
_symmetry_Int_Tables_number   1
_chemical_formula_structural   Cu2NiC6
_chemical_formula_sum   'Cu4 Ni2 C12'
_cell_volume   211.52944666
_cell_formula_units_Z   2
loop_
 _symmetry_equiv_pos_site_id
 _symmetry_equiv_pos_as_xyz
  1  'x, y, z'
loop_
 _atom_site_type_symbol
 _atom_site_label
 _atom_site_symmetry_multiplicity
 _atom_site_fract_x
 _atom_site_fract_y
 _atom_site_fract_z
 _atom_site_occupancy
  Ni  Ni0  1  0.00000000  0.00000000  0.00000000  1
  Ni  Ni1  1  0.50000000  0.50000000  0.50000000  1
  Cu  Cu2  1  0.50000000  0.50000000  0.83198200  1
  Cu  Cu3  1  0.00000000  0.00000000  0.33198200  1
  Cu  Cu4  1  0.50000000  0.50000000  0.16801800  1
  Cu  Cu5  1  0.00000000  0.00000000  0.66801800  1
  C  C6  1  0.70259700  0.70259700  0.67627100  1
  C  C7  1  0.29740300  0.29740300  0.67627100  1
  C  C8  1  0.70259700  0.70259700  0.32372900  1
  C  C9  1  0.20259700  0.79740300  0.17627100  1
  C  C10  1  0.79740300  0.20259700  0.17627100  1
  C  C11  1  0.79740300  0.20259700  0.82372900  1
  C  C12  1  0.31110400  0.31110400  0.00000000  1
  C  C13  1  0.18889600  0.81110400  0.50000000  1
  C  C14  1  0.81110400  0.18889600  0.50000000  1
  C  C15  1  0.68889600  0.68889600  0.00000000  1
  C  C16  1  0.29740300  0.29740300  0.32372900  1
  C  C17  1  0.20259700  0.79740300  0.82372900  1
