# generated using pymatgen
data_Cu3(NiC3)2
_symmetry_space_group_name_H-M   'P 1'
_cell_length_a   8.81470198
_cell_length_b   8.81470198
_cell_length_c   5.68523526
_cell_angle_alpha   74.29450060
_cell_angle_beta   74.29450060
_cell_angle_gamma   17.60082148
_symmetry_Int_Tables_number   1
_chemical_formula_structural   Cu3(NiC3)2
_chemical_formula_sum   'Cu3 Ni2 C6'
_cell_volume   128.46520172
_cell_formula_units_Z   1
loop_
 _symmetry_equiv_pos_site_id
 _symmetry_equiv_pos_as_xyz
  1  'x, y, z'
loop_
 _atom_site_type_symbol
 _atom_site_label
 _atom_site_symmetry_multiplicity
 _atom_site_fract_x
 _atom_site_fract_y
 _atom_site_fract_z
 _atom_site_occupancy
  Ni  Ni0  1  0.09906600  0.09906600  0.76584400  1
  Ni  Ni1  1  0.90093400  0.90093400  0.23415600  1
  Cu  Cu2  1  0.34316500  0.34316500  0.96765100  1
  Cu  Cu3  1  0.65683500  0.65683500  0.03234900  1
  Cu  Cu4  1  0.00000000  0.00000000  0.50000000  1
  C  C5  1  0.62426900  0.62426900  0.84294500  1
  C  C6  1  0.95940100  0.95940100  0.35960800  1
  C  C7  1  0.04059900  0.04059900  0.64039200  1
  C  C8  1  0.32174600  0.32174600  0.79053300  1
  C  C9  1  0.37573100  0.37573100  0.15705500  1
  C  C10  1  0.67825400  0.67825400  0.20946700  1
