# generated using pymatgen
data_Cu5Ni5C
_symmetry_space_group_name_H-M   'P 1'
_cell_length_a   7.08784267
_cell_length_b   7.08784267
_cell_length_c   14.98321400
_cell_angle_alpha   90.00000000
_cell_angle_beta   90.00000000
_cell_angle_gamma   120.00000622
_symmetry_Int_Tables_number   1
_chemical_formula_structural   Cu5Ni5C
_chemical_formula_sum   'Cu30 Ni30 C6'
_cell_volume   651.87409715
_cell_formula_units_Z   6
loop_
 _symmetry_equiv_pos_site_id
 _symmetry_equiv_pos_as_xyz
  1  'x, y, z'
loop_
 _atom_site_type_symbol
 _atom_site_label
 _atom_site_symmetry_multiplicity
 _atom_site_fract_x
 _atom_site_fract_y
 _atom_site_fract_z
 _atom_site_occupancy
  C  C0  1  0.50000000  0.00000000  0.24086100  1
  C  C1  1  0.00000000  0.50000000  0.57419400  1
  C  C2  1  0.50000000  0.50000000  0.90752800  1
  C  C3  1  0.00000000  0.50000000  0.09247200  1
  C  C4  1  0.50000000  0.00000000  0.75913900  1
  C  C5  1  0.50000000  0.50000000  0.42580600  1
  Ni  Ni6  1  0.69756800  0.34878400  0.33333300  1
  Ni  Ni7  1  0.65121600  0.34878400  0.66666700  1
  Ni  Ni8  1  0.65121600  0.30243200  0.00000000  1
  Ni  Ni9  1  0.30243200  0.65121600  0.33333300  1
  Ni  Ni10  1  0.34878400  0.65121600  0.66666700  1
  Ni  Ni11  1  0.34878400  0.69756800  0.00000000  1
  Ni  Ni12  1  0.87611600  0.26980100  0.30047500  1
  Ni  Ni13  1  0.73019900  0.60631500  0.63380900  1
  Ni  Ni14  1  0.39368500  0.12388400  0.96714200  1
  Ni  Ni15  1  0.12388400  0.73019900  0.30047500  1
  Ni  Ni16  1  0.26980100  0.39368500  0.63380900  1
  Ni  Ni17  1  0.60631500  0.87611600  0.96714200  1
  Ni  Ni18  1  0.26980100  0.87611600  0.03285800  1
  Ni  Ni19  1  0.60631500  0.73019900  0.69952500  1
  Ni  Ni20  1  0.12388400  0.39368500  0.36619100  1
  Ni  Ni21  1  0.73019900  0.12388400  0.03285800  1
  Ni  Ni22  1  0.39368500  0.26980100  0.69952500  1
  Ni  Ni23  1  0.87611600  0.60631500  0.36619100  1
  Ni  Ni24  1  0.87942300  0.50971300  0.25334900  1
  Ni  Ni25  1  0.49028700  0.36971000  0.58668200  1
  Ni  Ni26  1  0.63029000  0.12057700  0.92001500  1
  Ni  Ni27  1  0.12057700  0.49028700  0.25334900  1
  Ni  Ni28  1  0.50971300  0.63029000  0.58668200  1
  Ni  Ni29  1  0.36971000  0.87942300  0.92001500  1
  Ni  Ni30  1  0.50971300  0.87942300  0.07998500  1
  Ni  Ni31  1  0.36971000  0.49028700  0.74665100  1
  Ni  Ni32  1  0.12057700  0.63029000  0.41331800  1
  Ni  Ni33  1  0.49028700  0.12057700  0.07998500  1
  Ni  Ni34  1  0.63029000  0.50971300  0.74665100  1
  Ni  Ni35  1  0.87942300  0.36971000  0.41331800  1
  Cu  Cu36  1  0.50096100  0.25048100  0.33333300  1
  Cu  Cu37  1  0.74951900  0.25048100  0.66666700  1
  Cu  Cu38  1  0.74951900  0.49903900  0.00000000  1
  Cu  Cu39  1  0.49903900  0.74951900  0.33333300  1
  Cu  Cu40  1  0.25048100  0.74951900  0.66666700  1
  Cu  Cu41  1  0.25048100  0.50096100  0.00000000  1
  Cu  Cu42  1  0.81837800  0.09086200  0.27090200  1
  Cu  Cu43  1  0.90913800  0.72751600  0.60423600  1
  Cu  Cu44  1  0.27248400  0.18162200  0.93756900  1
  Cu  Cu45  1  0.18162200  0.90913800  0.27090200  1
  Cu  Cu46  1  0.09086200  0.27248400  0.60423600  1
  Cu  Cu47  1  0.72751600  0.81837800  0.93756900  1
  Cu  Cu48  1  0.09086200  0.81837800  0.06243100  1
  Cu  Cu49  1  0.72751600  0.90913800  0.72909800  1
  Cu  Cu50  1  0.18162200  0.27248400  0.39576400  1
  Cu  Cu51  1  0.90913800  0.18162200  0.06243100  1
  Cu  Cu52  1  0.27248400  0.09086200  0.72909800  1
  Cu  Cu53  1  0.81837800  0.72751600  0.39576400  1
  Cu  Cu54  1  0.80764400  0.53744300  0.18496800  1
  Cu  Cu55  1  0.46255700  0.27020000  0.51830200  1
  Cu  Cu56  1  0.72980000  0.19235600  0.85163500  1
  Cu  Cu57  1  0.19235600  0.46255700  0.18496800  1
  Cu  Cu58  1  0.53744300  0.72980000  0.51830200  1
  Cu  Cu59  1  0.27020000  0.80764400  0.85163500  1
  Cu  Cu60  1  0.53744300  0.80764400  0.14836500  1
  Cu  Cu61  1  0.27020000  0.46255700  0.81503200  1
  Cu  Cu62  1  0.19235600  0.72980000  0.48169800  1
  Cu  Cu63  1  0.46255700  0.19235600  0.14836500  1
  Cu  Cu64  1  0.72980000  0.53744300  0.81503200  1
  Cu  Cu65  1  0.80764400  0.27020000  0.48169800  1
