# generated using pymatgen
data_Cu4Ni3
_symmetry_space_group_name_H-M   'P 1'
_cell_length_a   6.51113361
_cell_length_b   6.51113361
_cell_length_c   4.74476500
_cell_angle_alpha   90.00000000
_cell_angle_beta   90.00000000
_cell_angle_gamma   119.99999603
_symmetry_Int_Tables_number   1
_chemical_formula_structural   Cu4Ni3
_chemical_formula_sum   'Cu16 Ni12'
_cell_volume   174.20417972
_cell_formula_units_Z   4
loop_
 _symmetry_equiv_pos_site_id
 _symmetry_equiv_pos_as_xyz
  1  'x, y, z'
loop_
 _atom_site_type_symbol
 _atom_site_label
 _atom_site_symmetry_multiplicity
 _atom_site_fract_x
 _atom_site_fract_y
 _atom_site_fract_z
 _atom_site_occupancy
  Ni  Ni0  1  0.51715700  0.08111000  0.20429900  1
  Ni  Ni1  1  0.91889000  0.43604700  0.20429900  1
  Ni  Ni2  1  0.56395300  0.48284300  0.20429900  1
  Ni  Ni3  1  0.08111000  0.51715700  0.70429900  1
  Ni  Ni4  1  0.43604700  0.91889000  0.70429900  1
  Ni  Ni5  1  0.48284300  0.56395300  0.70429900  1
  Ni  Ni6  1  0.16582400  0.25489500  0.99273200  1
  Ni  Ni7  1  0.74510500  0.91092900  0.99273200  1
  Ni  Ni8  1  0.08907100  0.83417600  0.99273200  1
  Ni  Ni9  1  0.25489500  0.16582400  0.49273200  1
  Ni  Ni10  1  0.91092900  0.74510500  0.49273200  1
  Ni  Ni11  1  0.83417600  0.08907100  0.49273200  1
  Cu  Cu12  1  0.00000000  0.00000000  0.99307300  1
  Cu  Cu13  1  0.00000000  0.00000000  0.49307300  1
  Cu  Cu14  1  0.33333300  0.66666700  0.62870500  1
  Cu  Cu15  1  0.66666700  0.33333300  0.12870500  1
  Cu  Cu16  1  0.34675200  0.95006600  0.97330500  1
  Cu  Cu17  1  0.04993400  0.39668600  0.97330500  1
  Cu  Cu18  1  0.60331400  0.65324800  0.97330500  1
  Cu  Cu19  1  0.95006600  0.34675200  0.47330500  1
  Cu  Cu20  1  0.39668600  0.04993400  0.47330500  1
  Cu  Cu21  1  0.65324800  0.60331400  0.47330500  1
  Cu  Cu22  1  0.31470300  0.31965600  0.24527200  1
  Cu  Cu23  1  0.68034400  0.99504700  0.24527200  1
  Cu  Cu24  1  0.00495300  0.68529700  0.24527200  1
  Cu  Cu25  1  0.31965600  0.31470300  0.74527200  1
  Cu  Cu26  1  0.99504700  0.68034400  0.74527200  1
  Cu  Cu27  1  0.68529700  0.00495300  0.74527200  1
