# generated using pymatgen
data_Cu2NiC4
_symmetry_space_group_name_H-M   'P 1'
_cell_length_a   4.00227800
_cell_length_b   12.00152900
_cell_length_c   14.37851700
_cell_angle_alpha   90.00000000
_cell_angle_beta   90.00000000
_cell_angle_gamma   90.00000000
_symmetry_Int_Tables_number   1
_chemical_formula_structural   Cu2NiC4
_chemical_formula_sum   'Cu8 Ni4 C16'
_cell_volume   690.64985623
_cell_formula_units_Z   4
loop_
 _symmetry_equiv_pos_site_id
 _symmetry_equiv_pos_as_xyz
  1  'x, y, z'
loop_
 _atom_site_type_symbol
 _atom_site_label
 _atom_site_symmetry_multiplicity
 _atom_site_fract_x
 _atom_site_fract_y
 _atom_site_fract_z
 _atom_site_occupancy
  Ni  Ni0  1  0.25000000  0.75699300  0.16134500  1
  Ni  Ni1  1  0.75000000  0.74300700  0.66134500  1
  Ni  Ni2  1  0.25000000  0.25699300  0.33865500  1
  Ni  Ni3  1  0.75000000  0.24300700  0.83865500  1
  Cu  Cu4  1  0.25000000  0.42960500  0.10964200  1
  Cu  Cu5  1  0.75000000  0.07039500  0.60964200  1
  Cu  Cu6  1  0.25000000  0.92960500  0.39035800  1
  Cu  Cu7  1  0.75000000  0.57039500  0.89035800  1
  Cu  Cu8  1  0.25000000  0.42045800  0.60137700  1
  Cu  Cu9  1  0.75000000  0.07954200  0.10137700  1
  Cu  Cu10  1  0.25000000  0.92045800  0.89862300  1
  Cu  Cu11  1  0.75000000  0.57954200  0.39862300  1
  C  C12  1  0.25000000  0.02059900  0.21583000  1
  C  C13  1  0.75000000  0.47940100  0.71583000  1
  C  C14  1  0.25000000  0.52059900  0.28417000  1
  C  C15  1  0.75000000  0.97940100  0.78417000  1
  C  C16  1  0.25000000  0.13152900  0.97451000  1
  C  C17  1  0.75000000  0.36847100  0.47451000  1
  C  C18  1  0.25000000  0.63152900  0.52549000  1
  C  C19  1  0.75000000  0.86847100  0.02549000  1
  C  C20  1  0.25000000  0.20864800  0.67610200  1
  C  C21  1  0.75000000  0.29135200  0.17610200  1
  C  C22  1  0.25000000  0.70864800  0.82389800  1
  C  C23  1  0.75000000  0.79135200  0.32389800  1
  C  C24  1  0.25000000  0.41627400  0.92078200  1
  C  C25  1  0.75000000  0.08372600  0.42078200  1
  C  C26  1  0.25000000  0.91627400  0.57921800  1
  C  C27  1  0.75000000  0.58372600  0.07921800  1
