# generated using pymatgen
data_Cu7NiC32
_symmetry_space_group_name_H-M   'P 1'
_cell_length_a   7.66872900
_cell_length_b   7.66872900
_cell_length_c   7.66872900
_cell_angle_alpha   90.00000000
_cell_angle_beta   90.00000000
_cell_angle_gamma   90.00000000
_symmetry_Int_Tables_number   1
_chemical_formula_structural   Cu7NiC32
_chemical_formula_sum   'Cu7 Ni1 C32'
_cell_volume   450.99338557
_cell_formula_units_Z   1
loop_
 _symmetry_equiv_pos_site_id
 _symmetry_equiv_pos_as_xyz
  1  'x, y, z'
loop_
 _atom_site_type_symbol
 _atom_site_label
 _atom_site_symmetry_multiplicity
 _atom_site_fract_x
 _atom_site_fract_y
 _atom_site_fract_z
 _atom_site_occupancy
  C  C0  1  0.24890100  0.24890100  0.24890100  1
  C  C1  1  0.24890100  0.24890100  0.75109900  1
  C  C2  1  0.24890100  0.75109900  0.24890100  1
  C  C3  1  0.24890100  0.75109900  0.75109900  1
  C  C4  1  0.75109900  0.24890100  0.24890100  1
  C  C5  1  0.75109900  0.24890100  0.75109900  1
  C  C6  1  0.75109900  0.75109900  0.24890100  1
  C  C7  1  0.75109900  0.75109900  0.75109900  1
  Ni  Ni8  1  0.00000000  0.00000000  0.00000000  1
  Cu  Cu9  1  0.00000000  0.00000000  0.50000000  1
  Cu  Cu10  1  0.00000000  0.50000000  0.00000000  1
  Cu  Cu11  1  0.00000000  0.50000000  0.50000000  1
  Cu  Cu12  1  0.50000000  0.00000000  0.00000000  1
  Cu  Cu13  1  0.50000000  0.00000000  0.50000000  1
  Cu  Cu14  1  0.50000000  0.50000000  0.00000000  1
  Cu  Cu15  1  0.50000000  0.50000000  0.50000000  1
  C  C16  1  0.00000000  0.26060300  0.00000000  1
  C  C17  1  0.00000000  0.25181000  0.50000000  1
  C  C18  1  0.00000000  0.73939700  0.00000000  1
  C  C19  1  0.00000000  0.74819000  0.50000000  1
  C  C20  1  0.50000000  0.25181000  0.00000000  1
  C  C21  1  0.50000000  0.25025600  0.50000000  1
  C  C22  1  0.50000000  0.74819000  0.00000000  1
  C  C23  1  0.50000000  0.74974400  0.50000000  1
  C  C24  1  0.00000000  0.00000000  0.26060300  1
  C  C25  1  0.00000000  0.00000000  0.73939700  1
  C  C26  1  0.00000000  0.50000000  0.25181000  1
  C  C27  1  0.00000000  0.50000000  0.74819000  1
  C  C28  1  0.50000000  0.00000000  0.25181000  1
  C  C29  1  0.50000000  0.00000000  0.74819000  1
  C  C30  1  0.50000000  0.50000000  0.25025600  1
  C  C31  1  0.50000000  0.50000000  0.74974400  1
  C  C32  1  0.26060300  0.00000000  0.00000000  1
  C  C33  1  0.25181000  0.00000000  0.50000000  1
  C  C34  1  0.25181000  0.50000000  0.00000000  1
  C  C35  1  0.25025600  0.50000000  0.50000000  1
  C  C36  1  0.73939700  0.00000000  0.00000000  1
  C  C37  1  0.74819000  0.00000000  0.50000000  1
  C  C38  1  0.74819000  0.50000000  0.00000000  1
  C  C39  1  0.74974400  0.50000000  0.50000000  1
