# generated using pymatgen
data_Cu3(NiC2)2
_symmetry_space_group_name_H-M   'P 1'
_cell_length_a   6.90538500
_cell_length_b   6.74433600
_cell_length_c   6.89575955
_cell_angle_alpha   70.16677680
_cell_angle_beta   90.00000000
_cell_angle_gamma   90.00000000
_symmetry_Int_Tables_number   1
_chemical_formula_structural   Cu3(NiC2)2
_chemical_formula_sum   'Cu6 Ni4 C8'
_cell_volume   302.10161778
_cell_formula_units_Z   2
loop_
 _symmetry_equiv_pos_site_id
 _symmetry_equiv_pos_as_xyz
  1  'x, y, z'
loop_
 _atom_site_type_symbol
 _atom_site_label
 _atom_site_symmetry_multiplicity
 _atom_site_fract_x
 _atom_site_fract_y
 _atom_site_fract_z
 _atom_site_occupancy
  Ni  Ni0  1  0.66417500  0.44343900  0.18595800  1
  Ni  Ni1  1  0.16417500  0.05656100  0.81404200  1
  Ni  Ni2  1  0.33582500  0.55656100  0.81404200  1
  Ni  Ni3  1  0.83582500  0.94343900  0.18595800  1
  C  C4  1  0.86698400  0.13326800  0.50191000  1
  C  C5  1  0.36698400  0.36673200  0.49809000  1
  C  C6  1  0.13301600  0.86673200  0.49809000  1
  C  C7  1  0.63301600  0.63326800  0.50191000  1
  C  C8  1  0.54415600  0.87163600  0.90944700  1
  C  C9  1  0.04415600  0.62836400  0.09055300  1
  C  C10  1  0.95584400  0.37163600  0.90944700  1
  C  C11  1  0.45584400  0.12836400  0.09055300  1
  Cu  Cu12  1  0.66372100  0.25399800  0.75607900  1
  Cu  Cu13  1  0.16372100  0.24600200  0.24392100  1
  Cu  Cu14  1  0.50000000  0.00000000  0.50000000  1
  Cu  Cu15  1  0.00000000  0.50000000  0.50000000  1
  Cu  Cu16  1  0.33627900  0.74600200  0.24392100  1
  Cu  Cu17  1  0.83627900  0.75399800  0.75607900  1
