# generated using pymatgen
data_Cu10Ni4C13
_symmetry_space_group_name_H-M   'P 1'
_cell_length_a   8.11205500
_cell_length_b   9.38491796
_cell_length_c   11.60167623
_cell_angle_alpha   113.40783494
_cell_angle_beta   98.37314326
_cell_angle_gamma   100.57526639
_symmetry_Int_Tables_number   1
_chemical_formula_structural   Cu10Ni4C13
_chemical_formula_sum   'Cu20 Ni8 C26'
_cell_volume   773.05669140
_cell_formula_units_Z   2
loop_
 _symmetry_equiv_pos_site_id
 _symmetry_equiv_pos_as_xyz
  1  'x, y, z'
loop_
 _atom_site_type_symbol
 _atom_site_label
 _atom_site_symmetry_multiplicity
 _atom_site_fract_x
 _atom_site_fract_y
 _atom_site_fract_z
 _atom_site_occupancy
  Ni  Ni0  1  0.77886200  0.90987800  0.75542700  1
  Ni  Ni1  1  0.22113800  0.09012200  0.24457300  1
  Ni  Ni2  1  0.26795700  0.42936900  0.24502300  1
  Ni  Ni3  1  0.55730000  0.98379600  0.25032400  1
  Ni  Ni4  1  0.91665800  0.52096900  0.25132200  1
  Ni  Ni5  1  0.73204300  0.57063100  0.75497700  1
  Ni  Ni6  1  0.44270000  0.01620400  0.74967600  1
  Ni  Ni7  1  0.08334200  0.47903100  0.74867800  1
  Cu  Cu8  1  0.11075400  0.31048600  0.64163900  1
  Cu  Cu9  1  0.15912800  0.57596100  0.91663600  1
  Cu  Cu10  1  0.57663000  0.80204800  0.16101100  1
  Cu  Cu11  1  0.33406600  0.50606400  0.43272800  1
  Cu  Cu12  1  0.21382200  0.03098100  0.07014600  1
  Cu  Cu13  1  0.15082700  0.87424600  0.92860300  1
  Cu  Cu14  1  0.32020000  0.93995800  0.56951300  1
  Cu  Cu15  1  0.84917300  0.12575400  0.07139700  1
  Cu  Cu16  1  0.84087200  0.42403900  0.08336400  1
  Cu  Cu17  1  0.67980000  0.06004200  0.43048700  1
  Cu  Cu18  1  0.78617800  0.96901900  0.92985400  1
  Cu  Cu19  1  0.98599400  0.96026100  0.42905000  1
  Cu  Cu20  1  0.56093200  0.56380100  0.08398800  1
  Cu  Cu21  1  0.43906800  0.43619900  0.91601200  1
  Cu  Cu22  1  0.63293400  0.34121400  0.44799100  1
  Cu  Cu23  1  0.42337000  0.19795200  0.83898900  1
  Cu  Cu24  1  0.66593400  0.49393600  0.56727200  1
  Cu  Cu25  1  0.88924600  0.68951400  0.35836100  1
  Cu  Cu26  1  0.01400600  0.03973900  0.57095000  1
  Cu  Cu27  1  0.36706600  0.65878600  0.55200900  1
  C  C28  1  0.59473500  0.75007000  0.61322500  1
  C  C29  1  0.62005000  0.20327800  0.11444900  1
  C  C30  1  0.72455000  0.82780800  0.37707400  1
  C  C31  1  0.35635300  0.64674600  0.12341400  1
  C  C32  1  0.83066900  0.73244700  0.76345400  1
  C  C33  1  0.88385800  0.79883100  0.89020300  1
  C  C34  1  0.18583300  0.21003200  0.87932100  1
  C  C35  1  0.27545000  0.17219200  0.62292600  1
  C  C36  1  0.64364700  0.35325400  0.87658600  1
  C  C37  1  0.40526500  0.24993000  0.38677500  1
  C  C38  1  0.43332600  0.10129300  0.25489700  1
  C  C39  1  0.16933100  0.26755300  0.23654600  1
  C  C40  1  0.11614200  0.20116900  0.10979700  1
  C  C41  1  0.81416700  0.78996800  0.12067900  1
  C  C42  1  0.17464100  0.82036300  0.37313700  1
  C  C43  1  0.82535900  0.17963700  0.62686300  1
  C  C44  1  0.18342100  0.66903600  0.73465200  1
  C  C45  1  0.56173800  0.18861400  0.74388400  1
  C  C46  1  0.93356100  0.42924000  0.38038700  1
  C  C47  1  0.11286800  0.54516200  0.23175800  1
  C  C48  1  0.88713200  0.45483800  0.76824200  1
  C  C49  1  0.37995000  0.79672200  0.88555100  1
  C  C50  1  0.06643900  0.57076000  0.61961300  1
  C  C51  1  0.81657900  0.33096400  0.26534800  1
  C  C52  1  0.43826200  0.81138600  0.25611600  1
  C  C53  1  0.56667400  0.89870700  0.74510300  1
