# generated using pymatgen
data_Cu(NiC)4
_symmetry_space_group_name_H-M   'P 1'
_cell_length_a   7.86593778
_cell_length_b   7.86593778
_cell_length_c   7.86593778
_cell_angle_alpha   123.24292962
_cell_angle_beta   123.24292962
_cell_angle_gamma   84.46924447
_symmetry_Int_Tables_number   1
_chemical_formula_structural   Cu(NiC)4
_chemical_formula_sum   'Cu2 Ni8 C8'
_cell_volume   325.61386917
_cell_formula_units_Z   2
loop_
 _symmetry_equiv_pos_site_id
 _symmetry_equiv_pos_as_xyz
  1  'x, y, z'
loop_
 _atom_site_type_symbol
 _atom_site_label
 _atom_site_symmetry_multiplicity
 _atom_site_fract_x
 _atom_site_fract_y
 _atom_site_fract_z
 _atom_site_occupancy
  C  C0  1  0.75000000  0.75000000  0.00000000  1
  C  C1  1  0.25000000  0.25000000  0.00000000  1
  C  C2  1  0.80940700  0.30940700  0.11881400  1
  C  C3  1  0.30940700  0.19059300  0.50000000  1
  C  C4  1  0.69059300  0.80940700  0.50000000  1
  C  C5  1  0.19059300  0.69059300  0.88118600  1
  C  C6  1  0.25000000  0.75000000  0.50000000  1
  C  C7  1  0.75000000  0.25000000  0.50000000  1
  Ni  Ni8  1  0.53705600  0.03705600  0.24495700  1
  Ni  Ni9  1  0.20790100  0.70790100  0.24495700  1
  Ni  Ni10  1  0.46294400  0.96294400  0.75504300  1
  Ni  Ni11  1  0.96294400  0.20790100  0.50000000  1
  Ni  Ni12  1  0.70790100  0.46294400  0.50000000  1
  Ni  Ni13  1  0.03705600  0.79209900  0.50000000  1
  Ni  Ni14  1  0.29209900  0.53705600  0.50000000  1
  Ni  Ni15  1  0.79209900  0.29209900  0.75504300  1
  Cu  Cu16  1  0.50000000  0.50000000  0.00000000  1
  Cu  Cu17  1  0.00000000  0.00000000  0.00000000  1
