# generated using pymatgen
data_CuNiC3
_symmetry_space_group_name_H-M   'P 1'
_cell_length_a   4.41952100
_cell_length_b   9.84674800
_cell_length_c   16.38402500
_cell_angle_alpha   90.00000000
_cell_angle_beta   90.00000000
_cell_angle_gamma   90.00000000
_symmetry_Int_Tables_number   1
_chemical_formula_structural   CuNiC3
_chemical_formula_sum   'Cu4 Ni4 C12'
_cell_volume   712.99851831
_cell_formula_units_Z   4
loop_
 _symmetry_equiv_pos_site_id
 _symmetry_equiv_pos_as_xyz
  1  'x, y, z'
loop_
 _atom_site_type_symbol
 _atom_site_label
 _atom_site_symmetry_multiplicity
 _atom_site_fract_x
 _atom_site_fract_y
 _atom_site_fract_z
 _atom_site_occupancy
  Ni  Ni0  1  0.25000000  0.56974900  0.67872300  1
  Ni  Ni1  1  0.75000000  0.43025100  0.32127700  1
  Ni  Ni2  1  0.25000000  0.06974900  0.82127700  1
  Ni  Ni3  1  0.75000000  0.93025100  0.17872300  1
  Cu  Cu4  1  0.75000000  0.66912400  0.94466900  1
  Cu  Cu5  1  0.25000000  0.33087600  0.05533100  1
  Cu  Cu6  1  0.75000000  0.16912400  0.55533100  1
  Cu  Cu7  1  0.25000000  0.83087600  0.44466900  1
  C  C8  1  0.25000000  0.83249900  0.00879200  1
  C  C9  1  0.75000000  0.16750100  0.99120800  1
  C  C10  1  0.25000000  0.33249900  0.49120800  1
  C  C11  1  0.75000000  0.66750100  0.50879200  1
  C  C12  1  0.75000000  0.51818100  0.10114300  1
  C  C13  1  0.25000000  0.48181900  0.89885700  1
  C  C14  1  0.75000000  0.01818100  0.39885700  1
  C  C15  1  0.25000000  0.98181900  0.60114300  1
  C  C16  1  0.75000000  0.79040700  0.78850100  1
  C  C17  1  0.25000000  0.20959300  0.21149900  1
  C  C18  1  0.75000000  0.29040700  0.71149900  1
  C  C19  1  0.25000000  0.70959300  0.28850100  1
