# generated using pymatgen
data_CuNi5C7
_symmetry_space_group_name_H-M   'P 1'
_cell_length_a   7.28689094
_cell_length_b   7.28689094
_cell_length_c   7.28689094
_cell_angle_alpha   60.00000000
_cell_angle_beta   60.00000000
_cell_angle_gamma   60.00000000
_symmetry_Int_Tables_number   1
_chemical_formula_structural   CuNi5C7
_chemical_formula_sum   'Cu1 Ni5 C7'
_cell_volume   273.59730288
_cell_formula_units_Z   1
loop_
 _symmetry_equiv_pos_site_id
 _symmetry_equiv_pos_as_xyz
  1  'x, y, z'
loop_
 _atom_site_type_symbol
 _atom_site_label
 _atom_site_symmetry_multiplicity
 _atom_site_fract_x
 _atom_site_fract_y
 _atom_site_fract_z
 _atom_site_occupancy
  C  C0  1  0.52323900  0.97676100  0.52323900  1
  C  C1  1  0.97676100  0.52323900  0.97676100  1
  C  C2  1  0.52323900  0.52323900  0.97676100  1
  C  C3  1  0.97676100  0.97676100  0.52323900  1
  C  C4  1  0.97676100  0.52323900  0.52323900  1
  C  C5  1  0.52323900  0.97676100  0.97676100  1
  C  C6  1  0.50000000  0.50000000  0.50000000  1
  Ni  Ni7  1  0.38484700  0.84545900  0.38484700  1
  Ni  Ni8  1  0.84545900  0.38484700  0.38484700  1
  Ni  Ni9  1  0.38484700  0.38484700  0.38484700  1
  Ni  Ni10  1  0.38484700  0.38484700  0.84545900  1
  Ni  Ni11  1  0.75000000  0.75000000  0.75000000  1
  Cu  Cu12  1  0.00000000  0.00000000  0.00000000  1
