# generated using pymatgen
data_CuNiC3
_symmetry_space_group_name_H-M   'P 1'
_cell_length_a   5.40737222
_cell_length_b   5.40737222
_cell_length_c   5.40651703
_cell_angle_alpha   89.99604413
_cell_angle_beta   89.99604413
_cell_angle_gamma   90.02171300
_symmetry_Int_Tables_number   1
_chemical_formula_structural   CuNiC3
_chemical_formula_sum   'Cu1 Ni1 C3'
_cell_volume   158.08478525
_cell_formula_units_Z   1
loop_
 _symmetry_equiv_pos_site_id
 _symmetry_equiv_pos_as_xyz
  1  'x, y, z'
loop_
 _atom_site_type_symbol
 _atom_site_label
 _atom_site_symmetry_multiplicity
 _atom_site_fract_x
 _atom_site_fract_y
 _atom_site_fract_z
 _atom_site_occupancy
  Ni  Ni0  1  0.99804700  0.99804700  0.00001500  1
  Cu  Cu1  1  0.49789400  0.49789400  0.51478700  1
  C  C2  1  0.99942100  0.49552300  0.51722400  1
  C  C3  1  0.50728900  0.50728900  0.01485900  1
  C  C4  1  0.49552300  0.99942100  0.51722400  1
