# generated using pymatgen
data_Cu6Ni3C2
_symmetry_space_group_name_H-M   'P 1'
_cell_length_a   6.80100156
_cell_length_b   6.80100156
_cell_length_c   4.80903500
_cell_angle_alpha   90.00000000
_cell_angle_beta   90.00000000
_cell_angle_gamma   119.99999576
_symmetry_Int_Tables_number   1
_chemical_formula_structural   Cu6Ni3C2
_chemical_formula_sum   'Cu12 Ni6 C4'
_cell_volume   192.63461869
_cell_formula_units_Z   2
loop_
 _symmetry_equiv_pos_site_id
 _symmetry_equiv_pos_as_xyz
  1  'x, y, z'
loop_
 _atom_site_type_symbol
 _atom_site_label
 _atom_site_symmetry_multiplicity
 _atom_site_fract_x
 _atom_site_fract_y
 _atom_site_fract_z
 _atom_site_occupancy
  C  C0  1  0.89955900  0.39955900  0.60044100  1
  C  C1  1  0.10044100  0.60044100  0.39955900  1
  C  C2  1  0.60044100  0.10044100  0.89955900  1
  C  C3  1  0.39955900  0.89955900  0.10044100  1
  Ni  Ni4  1  0.67048400  0.32951600  0.25000000  1
  Ni  Ni5  1  0.32951600  0.67048400  0.75000000  1
  Ni  Ni6  1  0.17048400  0.25000000  0.17048400  1
  Ni  Ni7  1  0.75000000  0.82951600  0.32951600  1
  Ni  Ni8  1  0.25000000  0.17048400  0.67048400  1
  Ni  Ni9  1  0.82951600  0.75000000  0.82951600  1
  Cu  Cu10  1  0.27509900  0.59307800  0.56908200  1
  Cu  Cu11  1  0.22490100  0.06908200  0.09307800  1
  Cu  Cu12  1  0.93091800  0.77509900  0.40692200  1
  Cu  Cu13  1  0.77509900  0.93091800  0.90692200  1
  Cu  Cu14  1  0.72490100  0.40692200  0.43091800  1
  Cu  Cu15  1  0.59307800  0.27509900  0.06908200  1
  Cu  Cu16  1  0.90692200  0.56908200  0.77509900  1
  Cu  Cu17  1  0.06908200  0.22490100  0.59307800  1
  Cu  Cu18  1  0.09307800  0.43091800  0.22490100  1
  Cu  Cu19  1  0.43091800  0.09307800  0.72490100  1
  Cu  Cu20  1  0.56908200  0.90692200  0.27509900  1
  Cu  Cu21  1  0.40692200  0.72490100  0.93091800  1
