# generated using pymatgen
data_Cu3NiC4
_symmetry_space_group_name_H-M   'P 1'
_cell_length_a   8.14444000
_cell_length_b   8.14444000
_cell_length_c   14.51139500
_cell_angle_alpha   90.00000000
_cell_angle_beta   90.00000000
_cell_angle_gamma   90.00000000
_symmetry_Int_Tables_number   1
_chemical_formula_structural   Cu3NiC4
_chemical_formula_sum   'Cu12 Ni4 C16'
_cell_volume   962.56844428
_cell_formula_units_Z   4
loop_
 _symmetry_equiv_pos_site_id
 _symmetry_equiv_pos_as_xyz
  1  'x, y, z'
loop_
 _atom_site_type_symbol
 _atom_site_label
 _atom_site_symmetry_multiplicity
 _atom_site_fract_x
 _atom_site_fract_y
 _atom_site_fract_z
 _atom_site_occupancy
  C  C0  1  0.14033500  0.15952600  0.60923800  1
  C  C1  1  0.85966500  0.84047400  0.60923800  1
  C  C2  1  0.15952600  0.14033500  0.89076200  1
  C  C3  1  0.65952600  0.35966500  0.60923800  1
  C  C4  1  0.34047400  0.64033500  0.60923800  1
  C  C5  1  0.35966500  0.65952600  0.89076200  1
  C  C6  1  0.64033500  0.34047400  0.89076200  1
  C  C7  1  0.84047400  0.85966500  0.89076200  1
  C  C8  1  0.35966500  0.34047400  0.39076200  1
  C  C9  1  0.64033500  0.65952600  0.39076200  1
  C  C10  1  0.34047400  0.35966500  0.10923800  1
  C  C11  1  0.84047400  0.14033500  0.39076200  1
  C  C12  1  0.15952600  0.85966500  0.39076200  1
  C  C13  1  0.14033500  0.84047400  0.10923800  1
  C  C14  1  0.85966500  0.15952600  0.10923800  1
  C  C15  1  0.65952600  0.64033500  0.10923800  1
  Ni  Ni16  1  0.50000000  0.00000000  0.74004600  1
  Ni  Ni17  1  0.00000000  0.50000000  0.75995400  1
  Ni  Ni18  1  0.00000000  0.50000000  0.25995400  1
  Ni  Ni19  1  0.50000000  0.00000000  0.24004600  1
  Cu  Cu20  1  0.17027600  0.82972400  0.75000000  1
  Cu  Cu21  1  0.67027600  0.67027600  0.75000000  1
  Cu  Cu22  1  0.32972400  0.32972400  0.75000000  1
  Cu  Cu23  1  0.82972400  0.17027600  0.75000000  1
  Cu  Cu24  1  0.32972400  0.67027600  0.25000000  1
  Cu  Cu25  1  0.82972400  0.82972400  0.25000000  1
  Cu  Cu26  1  0.17027600  0.17027600  0.25000000  1
  Cu  Cu27  1  0.50000000  0.00000000  0.41470300  1
  Cu  Cu28  1  0.67027600  0.32972400  0.25000000  1
  Cu  Cu29  1  0.00000000  0.50000000  0.58529700  1
  Cu  Cu30  1  0.00000000  0.50000000  0.08529700  1
  Cu  Cu31  1  0.50000000  0.00000000  0.91470300  1
