# generated using pymatgen
data_CuNiC2
_symmetry_space_group_name_H-M   'P 1'
_cell_length_a   6.64182977
_cell_length_b   6.64182977
_cell_length_c   6.70145401
_cell_angle_alpha   82.07692725
_cell_angle_beta   82.07692725
_cell_angle_gamma   31.48339616
_symmetry_Int_Tables_number   1
_chemical_formula_structural   CuNiC2
_chemical_formula_sum   'Cu2 Ni2 C4'
_cell_volume   152.80025596
_cell_formula_units_Z   2
loop_
 _symmetry_equiv_pos_site_id
 _symmetry_equiv_pos_as_xyz
  1  'x, y, z'
loop_
 _atom_site_type_symbol
 _atom_site_label
 _atom_site_symmetry_multiplicity
 _atom_site_fract_x
 _atom_site_fract_y
 _atom_site_fract_z
 _atom_site_occupancy
  Ni  Ni0  1  0.00000000  0.00000000  0.00000000  1
  Ni  Ni1  1  0.50000000  0.50000000  0.50000000  1
  Cu  Cu2  1  0.75374000  0.75374000  0.73903000  1
  Cu  Cu3  1  0.24626000  0.24626000  0.26097000  1
  C  C4  1  0.33613000  0.33613000  0.51698000  1
  C  C5  1  0.66387000  0.66387000  0.48302000  1
  C  C6  1  0.83927000  0.83927000  0.11651000  1
  C  C7  1  0.16073000  0.16073000  0.88349000  1
