# generated using pymatgen
data_CuNi3C10
_symmetry_space_group_name_H-M   'P 1'
_cell_length_a   5.67613000
_cell_length_b   7.51437100
_cell_length_c   9.53462285
_cell_angle_alpha   88.59786972
_cell_angle_beta   90.00000000
_cell_angle_gamma   90.00000000
_symmetry_Int_Tables_number   1
_chemical_formula_structural   CuNi3C10
_chemical_formula_sum   'Cu2 Ni6 C20'
_cell_volume   406.55417941
_cell_formula_units_Z   2
loop_
 _symmetry_equiv_pos_site_id
 _symmetry_equiv_pos_as_xyz
  1  'x, y, z'
loop_
 _atom_site_type_symbol
 _atom_site_label
 _atom_site_symmetry_multiplicity
 _atom_site_fract_x
 _atom_site_fract_y
 _atom_site_fract_z
 _atom_site_occupancy
  Ni  Ni0  1  0.75000000  0.63665800  0.59198500  1
  Ni  Ni1  1  0.25000000  0.36334200  0.40801500  1
  Ni  Ni2  1  0.75000000  0.49339900  0.18942500  1
  Ni  Ni3  1  0.25000000  0.50660100  0.81057500  1
  Ni  Ni4  1  0.25000000  0.80084900  0.08268500  1
  Ni  Ni5  1  0.75000000  0.19915100  0.91731500  1
  Cu  Cu6  1  0.75000000  0.99383000  0.29173300  1
  Cu  Cu7  1  0.25000000  0.00617000  0.70826700  1
  C  C8  1  0.75000000  0.76895100  0.91086200  1
  C  C9  1  0.25000000  0.23104900  0.08913800  1
  C  C10  1  0.75000000  0.18992100  0.57231200  1
  C  C11  1  0.25000000  0.81007900  0.42768800  1
  C  C12  1  0.75000000  0.82515600  0.06741500  1
  C  C13  1  0.25000000  0.17484400  0.93258500  1
  C  C14  1  0.75000000  0.56542700  0.89781300  1
  C  C15  1  0.25000000  0.43457300  0.10218700  1
  C  C16  1  0.02588300  0.15161600  0.16360300  1
  C  C17  1  0.52588300  0.84838400  0.83639700  1
  C  C18  1  0.97411700  0.84838400  0.83639700  1
  C  C19  1  0.47411700  0.15161600  0.16360300  1
  C  C20  1  0.75000000  0.28254200  0.42369100  1
  C  C21  1  0.25000000  0.71745800  0.57630900  1
  C  C22  1  0.52581700  0.24405700  0.65631000  1
  C  C23  1  0.02581700  0.75594300  0.34369000  1
  C  C24  1  0.47418300  0.75594300  0.34369000  1
  C  C25  1  0.97418300  0.24405700  0.65631000  1
  C  C26  1  0.75000000  0.98674600  0.54683600  1
  C  C27  1  0.25000000  0.01325400  0.45316400  1
