# generated using pymatgen
data_Cu16NiC12
_symmetry_space_group_name_H-M   'P 1'
_cell_length_a   9.26526587
_cell_length_b   9.26526587
_cell_length_c   9.26526537
_cell_angle_alpha   110.12704647
_cell_angle_beta   110.12704647
_cell_angle_gamma   110.12705155
_symmetry_Int_Tables_number   1
_chemical_formula_structural   Cu16NiC12
_chemical_formula_sum   'Cu16 Ni1 C12'
_cell_volume   596.95291859
_cell_formula_units_Z   1
loop_
 _symmetry_equiv_pos_site_id
 _symmetry_equiv_pos_as_xyz
  1  'x, y, z'
loop_
 _atom_site_type_symbol
 _atom_site_label
 _atom_site_symmetry_multiplicity
 _atom_site_fract_x
 _atom_site_fract_y
 _atom_site_fract_z
 _atom_site_occupancy
  Ni  Ni0  1  0.37264200  0.37264200  0.37264200  1
  Cu  Cu1  1  0.65332600  0.99591900  0.99591900  1
  Cu  Cu2  1  0.71847200  0.31634400  0.31634400  1
  Cu  Cu3  1  0.27861900  0.61402600  0.61402600  1
  Cu  Cu4  1  0.99458200  0.99458200  0.99458200  1
  Cu  Cu5  1  0.00162100  0.68910900  0.39311300  1
  Cu  Cu6  1  0.39311300  0.00162100  0.68910900  1
  Cu  Cu7  1  0.61402600  0.61402600  0.27861900  1
  Cu  Cu8  1  0.99591900  0.99591900  0.65332600  1
  Cu  Cu9  1  0.68910900  0.39311300  0.00162100  1
  Cu  Cu10  1  0.31634400  0.71847200  0.31634400  1
  Cu  Cu11  1  0.31634400  0.31634400  0.71847200  1
  Cu  Cu12  1  0.68910900  0.00162100  0.39311300  1
  Cu  Cu13  1  0.99591900  0.65332600  0.99591900  1
  Cu  Cu14  1  0.61402600  0.27861900  0.61402600  1
  Cu  Cu15  1  0.39311300  0.68910900  0.00162100  1
  Cu  Cu16  1  0.00162100  0.39311300  0.68910900  1
  C  C17  1  0.17228400  0.81069600  0.81069600  1
  C  C18  1  0.81128500  0.62822500  0.62822500  1
  C  C19  1  0.99983900  0.36477600  0.18571500  1
  C  C20  1  0.62822500  0.81128500  0.62822500  1
  C  C21  1  0.36477600  0.18571500  0.99983900  1
  C  C22  1  0.81069600  0.17228400  0.81069600  1
  C  C23  1  0.18571500  0.36477600  0.99983900  1
  C  C24  1  0.18571500  0.99983900  0.36477600  1
  C  C25  1  0.81069600  0.81069600  0.17228400  1
  C  C26  1  0.36477600  0.99983900  0.18571500  1
  C  C27  1  0.62822500  0.62822500  0.81128500  1
  C  C28  1  0.99983900  0.18571500  0.36477600  1
