# generated using pymatgen
data_Cu2NiC3
_symmetry_space_group_name_H-M   'P 1'
_cell_length_a   6.73477491
_cell_length_b   6.73477491
_cell_length_c   9.43387008
_cell_angle_alpha   75.54741924
_cell_angle_beta   75.54741924
_cell_angle_gamma   87.92927906
_symmetry_Int_Tables_number   1
_chemical_formula_structural   Cu2NiC3
_chemical_formula_sum   'Cu4 Ni2 C6'
_cell_volume   401.08444075
_cell_formula_units_Z   2
loop_
 _symmetry_equiv_pos_site_id
 _symmetry_equiv_pos_as_xyz
  1  'x, y, z'
loop_
 _atom_site_type_symbol
 _atom_site_label
 _atom_site_symmetry_multiplicity
 _atom_site_fract_x
 _atom_site_fract_y
 _atom_site_fract_z
 _atom_site_occupancy
  C  C0  1  0.34521700  0.24347400  0.98080600  1
  C  C1  1  0.75652600  0.65478300  0.51919400  1
  C  C2  1  0.65478300  0.75652600  0.01919400  1
  C  C3  1  0.24347400  0.34521700  0.48080600  1
  C  C4  1  0.15534800  0.84465200  0.75000000  1
  C  C5  1  0.84465200  0.15534800  0.25000000  1
  Ni  Ni6  1  0.21699900  0.78300100  0.25000000  1
  Ni  Ni7  1  0.78300100  0.21699900  0.75000000  1
  Cu  Cu8  1  0.34370400  0.90213200  0.35320600  1
  Cu  Cu9  1  0.09786800  0.65629600  0.14679400  1
  Cu  Cu10  1  0.90213200  0.34370400  0.85320600  1
  Cu  Cu11  1  0.65629600  0.09786800  0.64679400  1
