# generated using pymatgen
data_CuNiC6
_symmetry_space_group_name_H-M   'P 1'
_cell_length_a   8.00937200
_cell_length_b   5.99999800
_cell_length_c   6.06102623
_cell_angle_alpha   60.07306493
_cell_angle_beta   90.00000000
_cell_angle_gamma   90.00000000
_symmetry_Int_Tables_number   1
_chemical_formula_structural   CuNiC6
_chemical_formula_sum   'Cu2 Ni2 C12'
_cell_volume   252.43271885
_cell_formula_units_Z   2
loop_
 _symmetry_equiv_pos_site_id
 _symmetry_equiv_pos_as_xyz
  1  'x, y, z'
loop_
 _atom_site_type_symbol
 _atom_site_label
 _atom_site_symmetry_multiplicity
 _atom_site_fract_x
 _atom_site_fract_y
 _atom_site_fract_z
 _atom_site_occupancy
  Ni  Ni0  1  0.22891500  0.62453200  0.65056800  1
  Ni  Ni1  1  0.72891500  0.37546800  0.34943200  1
  Cu  Cu2  1  0.48352400  0.00361400  0.98611800  1
  Cu  Cu3  1  0.98352400  0.99638600  0.01388200  1
  C  C4  1  0.24650100  0.29735400  0.32215900  1
  C  C5  1  0.74650100  0.70264600  0.67784100  1
  C  C6  1  0.00646000  0.04871300  0.49204200  1
  C  C7  1  0.50646000  0.95128700  0.50795800  1
  C  C8  1  0.24104900  0.61282700  0.15690600  1
  C  C9  1  0.74104900  0.38717300  0.84309400  1
  C  C10  1  0.24141100  0.16363800  0.14088000  1
  C  C11  1  0.74141100  0.83636200  0.85912000  1
  C  C12  1  0.39846100  0.17659100  0.53355200  1
  C  C13  1  0.89846100  0.82340900  0.46644800  1
  C  C14  1  0.07067900  0.18214500  0.51530500  1
  C  C15  1  0.57067900  0.81785500  0.48469500  1
