# generated using pymatgen
data_CuNi3C7
_symmetry_space_group_name_H-M   'P 1'
_cell_length_a   7.15853882
_cell_length_b   7.15853882
_cell_length_c   7.15853863
_cell_angle_alpha   91.51151631
_cell_angle_beta   91.51151631
_cell_angle_gamma   91.51151059
_symmetry_Int_Tables_number   1
_chemical_formula_structural   CuNi3C7
_chemical_formula_sum   'Cu2 Ni6 C14'
_cell_volume   366.44720470
_cell_formula_units_Z   2
loop_
 _symmetry_equiv_pos_site_id
 _symmetry_equiv_pos_as_xyz
  1  'x, y, z'
loop_
 _atom_site_type_symbol
 _atom_site_label
 _atom_site_symmetry_multiplicity
 _atom_site_fract_x
 _atom_site_fract_y
 _atom_site_fract_z
 _atom_site_occupancy
  Ni  Ni0  1  0.10693000  0.75000000  0.39307000  1
  Ni  Ni1  1  0.39307000  0.10693000  0.75000000  1
  Ni  Ni2  1  0.89307000  0.25000000  0.60693000  1
  Ni  Ni3  1  0.60693000  0.89307000  0.25000000  1
  Ni  Ni4  1  0.75000000  0.39307000  0.10693000  1
  Ni  Ni5  1  0.25000000  0.60693000  0.89307000  1
  Cu  Cu6  1  0.25000000  0.25000000  0.25000000  1
  Cu  Cu7  1  0.75000000  0.75000000  0.75000000  1
  C  C8  1  0.00000000  0.00000000  0.00000000  1
  C  C9  1  0.50000000  0.50000000  0.50000000  1
  C  C10  1  0.44853500  0.76554000  0.58061200  1
  C  C11  1  0.58061200  0.44853500  0.76554000  1
  C  C12  1  0.76554000  0.58061200  0.44853500  1
  C  C13  1  0.05146500  0.91938800  0.73446000  1
  C  C14  1  0.73446000  0.05146500  0.91938800  1
  C  C15  1  0.91938800  0.73446000  0.05146500  1
  C  C16  1  0.55146500  0.23446000  0.41938800  1
  C  C17  1  0.41938800  0.55146500  0.23446000  1
  C  C18  1  0.23446000  0.41938800  0.55146500  1
  C  C19  1  0.94853500  0.08061200  0.26554000  1
  C  C20  1  0.08061200  0.26554000  0.94853500  1
  C  C21  1  0.26554000  0.94853500  0.08061200  1
