# generated using pymatgen
data_Cu5Ni3C2
_symmetry_space_group_name_H-M   'P 1'
_cell_length_a   7.88929483
_cell_length_b   7.88929483
_cell_length_c   7.88929483
_cell_angle_alpha   139.02230257
_cell_angle_beta   105.43476483
_cell_angle_gamma   88.79062892
_symmetry_Int_Tables_number   1
_chemical_formula_structural   Cu5Ni3C2
_chemical_formula_sum   'Cu10 Ni6 C4'
_cell_volume   297.56744098
_cell_formula_units_Z   2
loop_
 _symmetry_equiv_pos_site_id
 _symmetry_equiv_pos_as_xyz
  1  'x, y, z'
loop_
 _atom_site_type_symbol
 _atom_site_label
 _atom_site_symmetry_multiplicity
 _atom_site_fract_x
 _atom_site_fract_y
 _atom_site_fract_z
 _atom_site_occupancy
  C  C0  1  0.59797500  0.86513400  0.73284100  1
  C  C1  1  0.13229400  0.36513400  0.76715900  1
  C  C2  1  0.86770600  0.63486600  0.23284100  1
  C  C3  1  0.40202500  0.13486600  0.26715900  1
  Ni  Ni4  1  0.00000000  0.25000000  0.25000000  1
  Ni  Ni5  1  0.00000000  0.75000000  0.75000000  1
  Ni  Ni6  1  0.25304600  0.86189200  0.39115500  1
  Ni  Ni7  1  0.52926300  0.63810800  0.89115500  1
  Ni  Ni8  1  0.47073700  0.36189200  0.10884500  1
  Ni  Ni9  1  0.74695400  0.13810800  0.60884500  1
  Cu  Cu10  1  0.77421800  0.02421800  0.25000000  1
  Cu  Cu11  1  0.22578200  0.97578200  0.75000000  1
  Cu  Cu12  1  0.77421800  0.52421800  0.75000000  1
  Cu  Cu13  1  0.94181300  0.10089000  0.84092300  1
  Cu  Cu14  1  0.05818700  0.89911000  0.15907700  1
  Cu  Cu15  1  0.50000000  0.25000000  0.75000000  1
  Cu  Cu16  1  0.50000000  0.75000000  0.25000000  1
  Cu  Cu17  1  0.74003300  0.39911000  0.34092300  1
  Cu  Cu18  1  0.25996700  0.60089000  0.65907700  1
  Cu  Cu19  1  0.22578200  0.47578200  0.25000000  1
