# generated using pymatgen
data_CuNi2C5
_symmetry_space_group_name_H-M   'P 1'
_cell_length_a   5.66552300
_cell_length_b   10.83687000
_cell_length_c   16.00329400
_cell_angle_alpha   90.00000000
_cell_angle_beta   90.00000000
_cell_angle_gamma   90.00000000
_symmetry_Int_Tables_number   1
_chemical_formula_structural   CuNi2C5
_chemical_formula_sum   'Cu8 Ni16 C40'
_cell_volume   982.54681992
_cell_formula_units_Z   8
loop_
 _symmetry_equiv_pos_site_id
 _symmetry_equiv_pos_as_xyz
  1  'x, y, z'
loop_
 _atom_site_type_symbol
 _atom_site_label
 _atom_site_symmetry_multiplicity
 _atom_site_fract_x
 _atom_site_fract_y
 _atom_site_fract_z
 _atom_site_occupancy
  Ni  Ni0  1  0.78191300  0.87045800  0.71580800  1
  Ni  Ni1  1  0.21808700  0.62954200  0.21580800  1
  Ni  Ni2  1  0.71808700  0.37045800  0.28419200  1
  Ni  Ni3  1  0.28191300  0.12954200  0.78419200  1
  Ni  Ni4  1  0.21808700  0.12954200  0.28419200  1
  Ni  Ni5  1  0.78191300  0.37045800  0.78419200  1
  Ni  Ni6  1  0.28191300  0.62954200  0.71580800  1
  Ni  Ni7  1  0.71808700  0.87045800  0.21580800  1
  Ni  Ni8  1  0.70738500  0.05002600  0.41493800  1
  Ni  Ni9  1  0.29261500  0.44997400  0.91493800  1
  Ni  Ni10  1  0.79261500  0.55002600  0.58506200  1
  Ni  Ni11  1  0.20738500  0.94997400  0.08506200  1
  Ni  Ni12  1  0.29261500  0.94997400  0.58506200  1
  Ni  Ni13  1  0.70738500  0.55002600  0.08506200  1
  Ni  Ni14  1  0.20738500  0.44997400  0.41493800  1
  Ni  Ni15  1  0.79261500  0.05002600  0.91493800  1
  Cu  Cu16  1  0.21208100  0.16549200  0.47947900  1
  Cu  Cu17  1  0.78791900  0.33450800  0.97947900  1
  Cu  Cu18  1  0.28791900  0.66549200  0.52052100  1
  Cu  Cu19  1  0.71208100  0.83450800  0.02052100  1
  Cu  Cu20  1  0.78791900  0.83450800  0.52052100  1
  Cu  Cu21  1  0.21208100  0.66549200  0.02052100  1
  Cu  Cu22  1  0.71208100  0.33450800  0.47947900  1
  Cu  Cu23  1  0.28791900  0.16549200  0.97947900  1
  C  C24  1  0.83466900  0.15555900  0.63476200  1
  C  C25  1  0.16533100  0.34444100  0.13476200  1
  C  C26  1  0.66533100  0.65555900  0.36523800  1
  C  C27  1  0.33466900  0.84444100  0.86523800  1
  C  C28  1  0.16533100  0.84444100  0.36523800  1
  C  C29  1  0.83466900  0.65555900  0.86523800  1
  C  C30  1  0.33466900  0.34444100  0.63476200  1
  C  C31  1  0.66533100  0.15555900  0.13476200  1
  C  C32  1  0.80572400  0.11779600  0.75189000  1
  C  C33  1  0.19427600  0.38220400  0.25189000  1
  C  C34  1  0.69427600  0.61779600  0.24811000  1
  C  C35  1  0.30572400  0.88220400  0.74811000  1
  C  C36  1  0.19427600  0.88220400  0.24811000  1
  C  C37  1  0.80572400  0.61779600  0.74811000  1
  C  C38  1  0.30572400  0.38220400  0.75189000  1
  C  C39  1  0.69427600  0.11779600  0.25189000  1
  C  C40  1  0.74800200  0.00694500  0.57539400  1
  C  C41  1  0.25199800  0.49305500  0.07539400  1
  C  C42  1  0.75199800  0.50694500  0.42460600  1
  C  C43  1  0.24800200  0.99305500  0.92460600  1
  C  C44  1  0.25199800  0.99305500  0.42460600  1
  C  C45  1  0.74800200  0.50694500  0.92460600  1
  C  C46  1  0.24800200  0.49305500  0.57539400  1
  C  C47  1  0.75199800  0.00694500  0.07539400  1
  C  C48  1  0.17815500  0.17970800  0.61280800  1
  C  C49  1  0.82184500  0.32029200  0.11280800  1
  C  C50  1  0.32184500  0.67970800  0.38719200  1
  C  C51  1  0.67815500  0.82029200  0.88719200  1
  C  C52  1  0.82184500  0.82029200  0.38719200  1
  C  C53  1  0.17815500  0.67970800  0.88719200  1
  C  C54  1  0.67815500  0.32029200  0.61280800  1
  C  C55  1  0.32184500  0.17970800  0.11280800  1
  C  C56  1  0.96216800  0.24508200  0.41855500  1
  C  C57  1  0.03783200  0.25491800  0.91855500  1
  C  C58  1  0.53783200  0.74508200  0.58144500  1
  C  C59  1  0.46216800  0.75491800  0.08144500  1
  C  C60  1  0.03783200  0.75491800  0.58144500  1
  C  C61  1  0.96216800  0.74508200  0.08144500  1
  C  C62  1  0.46216800  0.25491800  0.41855500  1
  C  C63  1  0.53783200  0.24508200  0.91855500  1
