# generated using pymatgen
data_Cu6Ni4C25
_symmetry_space_group_name_H-M   'P 1'
_cell_length_a   9.14606012
_cell_length_b   9.14606012
_cell_length_c   9.14605984
_cell_angle_alpha   54.81709321
_cell_angle_beta   54.81709321
_cell_angle_gamma   54.81709200
_symmetry_Int_Tables_number   1
_chemical_formula_structural   Cu6Ni4C25
_chemical_formula_sum   'Cu6 Ni4 C25'
_cell_volume   475.70097143
_cell_formula_units_Z   1
loop_
 _symmetry_equiv_pos_site_id
 _symmetry_equiv_pos_as_xyz
  1  'x, y, z'
loop_
 _atom_site_type_symbol
 _atom_site_label
 _atom_site_symmetry_multiplicity
 _atom_site_fract_x
 _atom_site_fract_y
 _atom_site_fract_z
 _atom_site_occupancy
  C  C0  1  0.00000000  0.00000000  0.00000000  1
  Ni  Ni1  1  0.65082400  0.65082400  0.65082400  1
  Ni  Ni2  1  0.34917600  0.34917600  0.34917600  1
  Ni  Ni3  1  0.85216600  0.85216600  0.85216600  1
  Ni  Ni4  1  0.14783400  0.14783400  0.14783400  1
  Cu  Cu5  1  0.96200200  0.24927100  0.54312000  1
  Cu  Cu6  1  0.54312000  0.96200200  0.24927100  1
  Cu  Cu7  1  0.24927100  0.54312000  0.96200200  1
  Cu  Cu8  1  0.03799800  0.75072900  0.45688000  1
  Cu  Cu9  1  0.45688000  0.03799800  0.75072900  1
  Cu  Cu10  1  0.75072900  0.45688000  0.03799800  1
  C  C11  1  0.98403200  0.19955600  0.39561700  1
  C  C12  1  0.39561700  0.98403200  0.19955600  1
  C  C13  1  0.19955600  0.39561700  0.98403200  1
  C  C14  1  0.01596800  0.80044400  0.60438300  1
  C  C15  1  0.60438300  0.01596800  0.80044400  1
  C  C16  1  0.80044400  0.60438300  0.01596800  1
  C  C17  1  0.15812400  0.20617600  0.53290500  1
  C  C18  1  0.53290500  0.15812400  0.20617600  1
  C  C19  1  0.20617600  0.53290500  0.15812400  1
  C  C20  1  0.84187600  0.79382400  0.46709500  1
  C  C21  1  0.46709500  0.84187600  0.79382400  1
  C  C22  1  0.79382400  0.46709500  0.84187600  1
  C  C23  1  0.82709200  0.45984600  0.51356500  1
  C  C24  1  0.51356500  0.82709200  0.45984600  1
  C  C25  1  0.45984600  0.51356500  0.82709200  1
  C  C26  1  0.17290800  0.54015400  0.48643500  1
  C  C27  1  0.48643500  0.17290800  0.54015400  1
  C  C28  1  0.54015400  0.48643500  0.17290800  1
  C  C29  1  0.87681900  0.11291000  0.75120900  1
  C  C30  1  0.75120900  0.87681900  0.11291000  1
  C  C31  1  0.11291000  0.75120900  0.87681900  1
  C  C32  1  0.12318100  0.88709000  0.24879100  1
  C  C33  1  0.24879100  0.12318100  0.88709000  1
  C  C34  1  0.88709000  0.24879100  0.12318100  1
