# generated using pymatgen
data_CuNiC3
_symmetry_space_group_name_H-M   'P 1'
_cell_length_a   4.76388300
_cell_length_b   10.80214400
_cell_length_c   18.11884700
_cell_angle_alpha   90.00000000
_cell_angle_beta   90.00000000
_cell_angle_gamma   90.00000000
_symmetry_Int_Tables_number   1
_chemical_formula_structural   CuNiC3
_chemical_formula_sum   'Cu4 Ni4 C12'
_cell_volume   932.39858744
_cell_formula_units_Z   4
loop_
 _symmetry_equiv_pos_site_id
 _symmetry_equiv_pos_as_xyz
  1  'x, y, z'
loop_
 _atom_site_type_symbol
 _atom_site_label
 _atom_site_symmetry_multiplicity
 _atom_site_fract_x
 _atom_site_fract_y
 _atom_site_fract_z
 _atom_site_occupancy
  Ni  Ni0  1  0.75000000  0.57146700  0.17524200  1
  Ni  Ni1  1  0.25000000  0.42853300  0.82475800  1
  Ni  Ni2  1  0.75000000  0.07146700  0.32475800  1
  Ni  Ni3  1  0.25000000  0.92853300  0.67524200  1
  Cu  Cu4  1  0.25000000  0.66258300  0.44413100  1
  Cu  Cu5  1  0.75000000  0.33741700  0.55586900  1
  Cu  Cu6  1  0.25000000  0.16258300  0.05586900  1
  Cu  Cu7  1  0.75000000  0.83741700  0.94413100  1
  C  C8  1  0.75000000  0.82918800  0.50342200  1
  C  C9  1  0.25000000  0.17081200  0.49657800  1
  C  C10  1  0.75000000  0.32918800  0.99657800  1
  C  C11  1  0.25000000  0.67081200  0.00342200  1
  C  C12  1  0.25000000  0.52408700  0.60053900  1
  C  C13  1  0.75000000  0.47591300  0.39946100  1
  C  C14  1  0.25000000  0.02408700  0.89946100  1
  C  C15  1  0.75000000  0.97591300  0.10053900  1
  C  C16  1  0.25000000  0.78525400  0.29147600  1
  C  C17  1  0.75000000  0.21474600  0.70852400  1
  C  C18  1  0.25000000  0.28525400  0.20852400  1
  C  C19  1  0.75000000  0.71474600  0.79147600  1
