# generated using pymatgen
data_CuNiC9
_symmetry_space_group_name_H-M   'P 1'
_cell_length_a   7.63373797
_cell_length_b   7.63373797
_cell_length_c   5.39786800
_cell_angle_alpha   90.00000000
_cell_angle_beta   90.00000000
_cell_angle_gamma   119.99999975
_symmetry_Int_Tables_number   1
_chemical_formula_structural   CuNiC9
_chemical_formula_sum   'Cu2 Ni2 C18'
_cell_volume   272.41272474
_cell_formula_units_Z   2
loop_
 _symmetry_equiv_pos_site_id
 _symmetry_equiv_pos_as_xyz
  1  'x, y, z'
loop_
 _atom_site_type_symbol
 _atom_site_label
 _atom_site_symmetry_multiplicity
 _atom_site_fract_x
 _atom_site_fract_y
 _atom_site_fract_z
 _atom_site_occupancy
  C  C0  1  0.89326200  0.10673800  0.75000000  1
  C  C1  1  0.39326200  0.25000000  0.60673800  1
  C  C2  1  0.75000000  0.60673800  0.89326200  1
  C  C3  1  0.10673800  0.89326200  0.25000000  1
  C  C4  1  0.60673800  0.75000000  0.39326200  1
  C  C5  1  0.25000000  0.39326200  0.10673800  1
  Ni  Ni6  1  0.00000000  0.50000000  0.50000000  1
  Ni  Ni7  1  0.50000000  0.00000000  0.00000000  1
  Cu  Cu8  1  0.75000000  0.25000000  0.25000000  1
  Cu  Cu9  1  0.25000000  0.75000000  0.75000000  1
  C  C10  1  0.29286500  0.58002900  0.45802800  1
  C  C11  1  0.70713500  0.41997100  0.54197200  1
  C  C12  1  0.91997100  0.54197200  0.20713500  1
  C  C13  1  0.04197200  0.20713500  0.41997100  1
  C  C14  1  0.45802800  0.08002900  0.29286500  1
  C  C15  1  0.58002900  0.29286500  0.95802800  1
  C  C16  1  0.20713500  0.04197200  0.91997100  1
  C  C17  1  0.41997100  0.70713500  0.04197200  1
  C  C18  1  0.54197200  0.91997100  0.70713500  1
  C  C19  1  0.95802800  0.79286500  0.58002900  1
  C  C20  1  0.08002900  0.45802800  0.79286500  1
  C  C21  1  0.79286500  0.95802800  0.08002900  1
