# generated using pymatgen
data_Cu9NiC36
_symmetry_space_group_name_H-M   'P 1'
_cell_length_a   13.85165445
_cell_length_b   13.85165445
_cell_length_c   13.85165464
_cell_angle_alpha   44.28118597
_cell_angle_beta   44.28118597
_cell_angle_gamma   44.28118779
_symmetry_Int_Tables_number   1
_chemical_formula_structural   Cu9NiC36
_chemical_formula_sum   'Cu18 Ni2 C72'
_cell_volume   1177.36298459
_cell_formula_units_Z   2
loop_
 _symmetry_equiv_pos_site_id
 _symmetry_equiv_pos_as_xyz
  1  'x, y, z'
loop_
 _atom_site_type_symbol
 _atom_site_label
 _atom_site_symmetry_multiplicity
 _atom_site_fract_x
 _atom_site_fract_y
 _atom_site_fract_z
 _atom_site_occupancy
  Ni  Ni0  1  0.18625300  0.18625300  0.18625300  1
  Ni  Ni1  1  0.68625300  0.68625300  0.68625300  1
  Cu  Cu2  1  0.94669200  0.55694800  0.97020500  1
  Cu  Cu3  1  0.55694800  0.97020500  0.94669200  1
  Cu  Cu4  1  0.97020500  0.94669200  0.55694800  1
  Cu  Cu5  1  0.47020500  0.05694800  0.44669200  1
  Cu  Cu6  1  0.05694800  0.44669200  0.47020500  1
  Cu  Cu7  1  0.44669200  0.47020500  0.05694800  1
  Cu  Cu8  1  0.34700100  0.90615200  0.93828900  1
  Cu  Cu9  1  0.90615200  0.93828900  0.34700100  1
  Cu  Cu10  1  0.93828900  0.34700100  0.90615200  1
  Cu  Cu11  1  0.43828900  0.40615200  0.84700100  1
  Cu  Cu12  1  0.40615200  0.84700100  0.43828900  1
  Cu  Cu13  1  0.84700100  0.43828900  0.40615200  1
  Cu  Cu14  1  0.65954100  0.07462700  0.06217900  1
  Cu  Cu15  1  0.07462700  0.06217900  0.65954100  1
  Cu  Cu16  1  0.06217900  0.65954100  0.07462700  1
  Cu  Cu17  1  0.56217900  0.57462700  0.15954100  1
  Cu  Cu18  1  0.57462700  0.15954100  0.56217900  1
  Cu  Cu19  1  0.15954100  0.56217900  0.57462700  1
  C  C20  1  0.00009500  0.00009500  0.00009500  1
  C  C21  1  0.50009500  0.50009500  0.50009500  1
  C  C22  1  0.18137900  0.68619700  0.22394700  1
  C  C23  1  0.68619700  0.22394700  0.18137900  1
  C  C24  1  0.32238400  0.77152800  0.80902200  1
  C  C25  1  0.77152800  0.80902200  0.32238400  1
  C  C26  1  0.80902200  0.32238400  0.77152800  1
  C  C27  1  0.30902200  0.27152800  0.82238400  1
  C  C28  1  0.27152800  0.82238400  0.30902200  1
  C  C29  1  0.82238400  0.30902200  0.27152800  1
  C  C30  1  0.76516500  0.76516500  0.76516500  1
  C  C31  1  0.26516500  0.26516500  0.26516500  1
  C  C32  1  0.22394700  0.18137900  0.68619700  1
  C  C33  1  0.72394700  0.18619700  0.68137900  1
  C  C34  1  0.68137900  0.72394700  0.18619700  1
  C  C35  1  0.18619700  0.68137900  0.72394700  1
  C  C36  1  0.11051900  0.67134100  0.68871000  1
  C  C37  1  0.67134100  0.68871000  0.11051900  1
  C  C38  1  0.68871000  0.11051900  0.67134100  1
  C  C39  1  0.18871000  0.17134100  0.61051900  1
  C  C40  1  0.17134100  0.61051900  0.18871000  1
  C  C41  1  0.61051900  0.18871000  0.17134100  1
  C  C42  1  0.36298600  0.61378000  0.63517200  1
  C  C43  1  0.61378000  0.63517200  0.36298600  1
  C  C44  1  0.63517200  0.36298600  0.61378000  1
  C  C45  1  0.13517200  0.11378000  0.86298600  1
  C  C46  1  0.11378000  0.86298600  0.13517200  1
  C  C47  1  0.86298600  0.13517200  0.11378000  1
  C  C48  1  0.12875100  0.85130400  0.67070700  1
  C  C49  1  0.85130400  0.67070700  0.12875100  1
  C  C50  1  0.67070700  0.12875100  0.85130400  1
  C  C51  1  0.17070700  0.35130400  0.62875100  1
  C  C52  1  0.35130400  0.62875100  0.17070700  1
  C  C53  1  0.62875100  0.17070700  0.35130400  1
  C  C54  1  0.14549800  0.58591100  0.89714000  1
  C  C55  1  0.58591100  0.89714000  0.14549800  1
  C  C56  1  0.89714000  0.14549800  0.58591100  1
  C  C57  1  0.39714000  0.08591100  0.64549800  1
  C  C58  1  0.37734400  0.84734000  0.63488500  1
  C  C59  1  0.08591100  0.64549800  0.39714000  1
  C  C60  1  0.14681700  0.87092100  0.87851400  1
  C  C61  1  0.87092100  0.87851400  0.14681700  1
  C  C62  1  0.87851400  0.14681700  0.87092100  1
  C  C63  1  0.37851400  0.37092100  0.64681700  1
  C  C64  1  0.37092100  0.64681700  0.37851400  1
  C  C65  1  0.64681700  0.37851400  0.37092100  1
  C  C66  1  0.33486600  0.60936500  0.89016800  1
  C  C67  1  0.60936500  0.89016800  0.33486600  1
  C  C68  1  0.89016800  0.33486600  0.60936500  1
  C  C69  1  0.39016800  0.10936500  0.83486600  1
  C  C70  1  0.10936500  0.83486600  0.39016800  1
  C  C71  1  0.83486600  0.39016800  0.10936500  1
  C  C72  1  0.30650400  0.30650400  0.30650400  1
  C  C73  1  0.80650400  0.80650400  0.80650400  1
  C  C74  1  0.25344100  0.10946100  0.39095200  1
  C  C75  1  0.39095200  0.25344100  0.10946100  1
  C  C76  1  0.10946100  0.39095200  0.25344100  1
  C  C77  1  0.60946100  0.75344100  0.89095200  1
  C  C78  1  0.89095200  0.60946100  0.75344100  1
  C  C79  1  0.75344100  0.89095200  0.60946100  1
  C  C80  1  0.91604600  0.34953000  0.25272500  1
  C  C81  1  0.25272500  0.91604600  0.34953000  1
  C  C82  1  0.34953000  0.25272500  0.91604600  1
  C  C83  1  0.84953000  0.41604600  0.75272500  1
  C  C84  1  0.75272500  0.84953000  0.41604600  1
  C  C85  1  0.41604600  0.75272500  0.84953000  1
  C  C86  1  0.87734400  0.13488500  0.34734000  1
  C  C87  1  0.34734000  0.87734400  0.13488500  1
  C  C88  1  0.13488500  0.34734000  0.87734400  1
  C  C89  1  0.63488500  0.37734400  0.84734000  1
  C  C90  1  0.84734000  0.63488500  0.37734400  1
  C  C91  1  0.64549800  0.39714000  0.08591100  1
